Global frequency set at 1000000000000 ticks per second
gem5 Simulator System.  https://www.gem5.org
gem5 is copyrighted software; use the --copyright option for details.

gem5 version 22.1.0.0
gem5 compiled Aug 27 2025 16:10:28
gem5 started Aug 27 2025 16:16:57
gem5 executing on vboxuser-VirtualBox, pid 4167
command line: /home/vboxuser/gem5/build/RISCV/gem5.opt --debug-flags=MinorGUI gem5_config.py --cpu-type MinorCPU --caches --l1d_size 8388608 --l1i_size 8388608 --cacheline_size 512 --cpu-clock 1MHz --sys-clock 10GHz -c example

**** REAL SIMULATION ****
1000000: system.cpu.fetch1: Log4GUI: fetch1: 1000000: 0: 10094: <assembly>
2000000: system.cpu.fetch1: Log4GUI: fetch1: 2000000: 1: 10094: <assembly>
3000000: system.cpu.fetch1: Log4GUI: fetch1: 3000000: 1: 10094: <assembly>
4000000: system.cpu.fetch1: Log4GUI: fetch1: 4000000: 1: 10094: <assembly>
5000000: system.cpu.decode: Log4GUI: decode: 5000000: 0: 10094: auipc x1, 1
5000000: system.cpu.fetch1: Log4GUI: fetch1: 5000000: 0: 10098: <assembly>
6000000: system.cpu.execute: Log4GUI: execute: 6000000: 0: 10094: auipc x1, 1: 0
6000000: system.cpu.decode: Log4GUI: decode: 6000000: 0: 10098: addi x1, x1, 176
6000000: system.cpu.fetch1: Log4GUI: fetch1: 6000000: 0: 1009c: <assembly>
7000000: system.cpu.memory: Log4GUI: memory: 7000000: 0: 10094: auipc x1, 1
7000000: system.cpu.execute: Log4GUI: execute: 7000000: 0: 10098: addi x1, x1, 176: 0
7000000: system.cpu.decode: Log4GUI: decode: 7000000: 0: 1009c: flw f9, 0(x1)
7000000: system.cpu.fetch1: Log4GUI: fetch1: 7000000: 0: 100a0: <assembly>
8000000: system.cpu.writeback: Log4GUI: writeback: 8000000: 0: 10094: auipc x1, 1
8000000: system.cpu.writeback: REGISTERS
8000000: global: x0=0x00000000
8000000: global: x1=0x00011094
8000000: global: x2=0x7fffff90
8000000: global: x3=0x00000000
8000000: global: x4=0x00000000
8000000: global: x5=0x00000000
8000000: global: x6=0x00000000
8000000: global: x7=0x00000000
8000000: global: x8=0x00000000
8000000: global: x9=0x00000000
8000000: global: x10=0x00000000
8000000: global: x11=0x00000000
8000000: global: x12=0x00000000
8000000: global: x13=0x00000000
8000000: global: x14=0x00000000
8000000: global: x15=0x00000000
8000000: global: x16=0x00000000
8000000: global: x17=0x00000000
8000000: global: x18=0x00000000
8000000: global: x19=0x00000000
8000000: global: x20=0x00000000
8000000: global: x21=0x00000000
8000000: global: x22=0x00000000
8000000: global: x23=0x00000000
8000000: global: x24=0x00000000
8000000: global: x25=0x00000000
8000000: global: x26=0x00000000
8000000: global: x27=0x00000000
8000000: global: x28=0x00000000
8000000: global: x29=0x00000000
8000000: global: x30=0x00000000
8000000: global: x31=0x00000000
8000000: global: f0=0x00000000
8000000: global: f1=0x00000000
8000000: global: f2=0x00000000
8000000: global: f3=0x00000000
8000000: global: f4=0x00000000
8000000: global: f5=0x00000000
8000000: global: f6=0x00000000
8000000: global: f7=0x00000000
8000000: global: f8=0x00000000
8000000: global: f9=0x00000000
8000000: global: f10=0x00000000
8000000: global: f11=0x00000000
8000000: global: f12=0x00000000
8000000: global: f13=0x00000000
8000000: global: f14=0x00000000
8000000: global: f15=0x00000000
8000000: global: f16=0x00000000
8000000: global: f17=0x00000000
8000000: global: f18=0x00000000
8000000: global: f19=0x00000000
8000000: global: f20=0x00000000
8000000: global: f21=0x00000000
8000000: global: f22=0x00000000
8000000: global: f23=0x00000000
8000000: global: f24=0x00000000
8000000: global: f25=0x00000000
8000000: global: f26=0x00000000
8000000: global: f27=0x00000000
8000000: global: f28=0x00000000
8000000: global: f29=0x00000000
8000000: global: f30=0x00000000
8000000: global: f31=0x00000000
8000000: system.cpu.memory: Log4GUI: memory: 8000000: 0: 10098: addi x1, x1, 176
8000000: system.cpu.execute: Log4GUI: execute: 8000000: 0: 1009c: flw f9, 0(x1): 0
8000000: system.cpu.decode: Log4GUI: decode: 8000000: 0: 100a0: auipc x1, 1
8000000: system.cpu.fetch1: Log4GUI: fetch1: 8000000: 0: 100a4: <assembly>
9000000: system.cpu.writeback: Log4GUI: writeback: 9000000: 0: 10098: addi x1, x1, 176
9000000: system.cpu.writeback: REGISTERS
9000000: global: x0=0x00000000
9000000: global: x1=0x00011144
9000000: global: x2=0x7fffff90
9000000: global: x3=0x00000000
9000000: global: x4=0x00000000
9000000: global: x5=0x00000000
9000000: global: x6=0x00000000
9000000: global: x7=0x00000000
9000000: global: x8=0x00000000
9000000: global: x9=0x00000000
9000000: global: x10=0x00000000
9000000: global: x11=0x00000000
9000000: global: x12=0x00000000
9000000: global: x13=0x00000000
9000000: global: x14=0x00000000
9000000: global: x15=0x00000000
9000000: global: x16=0x00000000
9000000: global: x17=0x00000000
9000000: global: x18=0x00000000
9000000: global: x19=0x00000000
9000000: global: x20=0x00000000
9000000: global: x21=0x00000000
9000000: global: x22=0x00000000
9000000: global: x23=0x00000000
9000000: global: x24=0x00000000
9000000: global: x25=0x00000000
9000000: global: x26=0x00000000
9000000: global: x27=0x00000000
9000000: global: x28=0x00000000
9000000: global: x29=0x00000000
9000000: global: x30=0x00000000
9000000: global: x31=0x00000000
9000000: global: f0=0x00000000
9000000: global: f1=0x00000000
9000000: global: f2=0x00000000
9000000: global: f3=0x00000000
9000000: global: f4=0x00000000
9000000: global: f5=0x00000000
9000000: global: f6=0x00000000
9000000: global: f7=0x00000000
9000000: global: f8=0x00000000
9000000: global: f9=0x00000000
9000000: global: f10=0x00000000
9000000: global: f11=0x00000000
9000000: global: f12=0x00000000
9000000: global: f13=0x00000000
9000000: global: f14=0x00000000
9000000: global: f15=0x00000000
9000000: global: f16=0x00000000
9000000: global: f17=0x00000000
9000000: global: f18=0x00000000
9000000: global: f19=0x00000000
9000000: global: f20=0x00000000
9000000: global: f21=0x00000000
9000000: global: f22=0x00000000
9000000: global: f23=0x00000000
9000000: global: f24=0x00000000
9000000: global: f25=0x00000000
9000000: global: f26=0x00000000
9000000: global: f27=0x00000000
9000000: global: f28=0x00000000
9000000: global: f29=0x00000000
9000000: global: f30=0x00000000
9000000: global: f31=0x00000000
9000000: system.cpu.memory: Log4GUI: memory: 9000000: 0: 1009c: flw f9, 0(x1)
9000000: system.cpu.execute: Log4GUI: execute: 9000000: 0: 100a0: auipc x1, 1: 0
9000000: system.cpu.decode: Log4GUI: decode: 9000000: 0: 100a4: addi x1, x1, 564
9000000: system.cpu.fetch1: Log4GUI: fetch1: 9000000: 0: 100a8: <assembly>
10000000: system.cpu.memory: Log4GUI: memory: 10000000: 1: 1009c: flw f9, 0(x1)
10000000: system.cpu.execute: Log4GUI: execute: 10000000: 1: 100a0: auipc x1, 1: 0
10000000: system.cpu.decode: Log4GUI: decode: 10000000: 1: 100a4: addi x1, x1, 564
10000000: system.cpu.fetch1: Log4GUI: fetch1: 10000000: 1: 100a8: <assembly>
11000000: system.cpu.decode: Log4GUI: decode: 11000000: 1: 100a4: addi x1, x1, 564
11000000: system.cpu.fetch1: Log4GUI: fetch1: 11000000: 1: 100a8: <assembly>
12000000: system.cpu.writeback: Log4GUI: writeback: 12000000: 0: 1009c: flw f9, 0(x1)
12000000: system.cpu.writeback: REGISTERS
12000000: global: x0=0x00000000
12000000: global: x1=0x00011144
12000000: global: x2=0x7fffff90
12000000: global: x3=0x00000000
12000000: global: x4=0x00000000
12000000: global: x5=0x00000000
12000000: global: x6=0x00000000
12000000: global: x7=0x00000000
12000000: global: x8=0x00000000
12000000: global: x9=0x00000000
12000000: global: x10=0x00000000
12000000: global: x11=0x00000000
12000000: global: x12=0x00000000
12000000: global: x13=0x00000000
12000000: global: x14=0x00000000
12000000: global: x15=0x00000000
12000000: global: x16=0x00000000
12000000: global: x17=0x00000000
12000000: global: x18=0x00000000
12000000: global: x19=0x00000000
12000000: global: x20=0x00000000
12000000: global: x21=0x00000000
12000000: global: x22=0x00000000
12000000: global: x23=0x00000000
12000000: global: x24=0x00000000
12000000: global: x25=0x00000000
12000000: global: x26=0x00000000
12000000: global: x27=0x00000000
12000000: global: x28=0x00000000
12000000: global: x29=0x00000000
12000000: global: x30=0x00000000
12000000: global: x31=0x00000000
12000000: global: f0=0x00000000
12000000: global: f1=0x00000000
12000000: global: f2=0x00000000
12000000: global: f3=0x00000000
12000000: global: f4=0x00000000
12000000: global: f5=0x00000000
12000000: global: f6=0x00000000
12000000: global: f7=0x00000000
12000000: global: f8=0x00000000
12000000: global: f9=0x00000000
12000000: global: f10=0x00000000
12000000: global: f11=0x00000000
12000000: global: f12=0x00000000
12000000: global: f13=0x00000000
12000000: global: f14=0x00000000
12000000: global: f15=0x00000000
12000000: global: f16=0x00000000
12000000: global: f17=0x00000000
12000000: global: f18=0x00000000
12000000: global: f19=0x00000000
12000000: global: f20=0x00000000
12000000: global: f21=0x00000000
12000000: global: f22=0x00000000
12000000: global: f23=0x00000000
12000000: global: f24=0x00000000
12000000: global: f25=0x00000000
12000000: global: f26=0x00000000
12000000: global: f27=0x00000000
12000000: global: f28=0x00000000
12000000: global: f29=0x00000000
12000000: global: f30=0x00000000
12000000: global: f31=0x00000000
12000000: system.cpu.memory: Log4GUI: memory: 12000000: 0: 100a0: auipc x1, 1
12000000: system.cpu.execute: Log4GUI: execute: 12000000: 0: 100a4: addi x1, x1, 564: 0
12000000: system.cpu.decode: Log4GUI: decode: 12000000: 0: 100a8: flw f9, 0(x1)
12000000: system.cpu.fetch1: Log4GUI: fetch1: 12000000: 0: 100ac: <assembly>
13000000: system.cpu.writeback: Log4GUI: writeback: 13000000: 0: 100a0: auipc x1, 1
13000000: system.cpu.writeback: REGISTERS
13000000: global: x0=0x00000000
13000000: global: x1=0x000110a0
13000000: global: x2=0x7fffff90
13000000: global: x3=0x00000000
13000000: global: x4=0x00000000
13000000: global: x5=0x00000000
13000000: global: x6=0x00000000
13000000: global: x7=0x00000000
13000000: global: x8=0x00000000
13000000: global: x9=0x00000000
13000000: global: x10=0x00000000
13000000: global: x11=0x00000000
13000000: global: x12=0x00000000
13000000: global: x13=0x00000000
13000000: global: x14=0x00000000
13000000: global: x15=0x00000000
13000000: global: x16=0x00000000
13000000: global: x17=0x00000000
13000000: global: x18=0x00000000
13000000: global: x19=0x00000000
13000000: global: x20=0x00000000
13000000: global: x21=0x00000000
13000000: global: x22=0x00000000
13000000: global: x23=0x00000000
13000000: global: x24=0x00000000
13000000: global: x25=0x00000000
13000000: global: x26=0x00000000
13000000: global: x27=0x00000000
13000000: global: x28=0x00000000
13000000: global: x29=0x00000000
13000000: global: x30=0x00000000
13000000: global: x31=0x00000000
13000000: global: f0=0x00000000
13000000: global: f1=0x00000000
13000000: global: f2=0x00000000
13000000: global: f3=0x00000000
13000000: global: f4=0x00000000
13000000: global: f5=0x00000000
13000000: global: f6=0x00000000
13000000: global: f7=0x00000000
13000000: global: f8=0x00000000
13000000: global: f9=0x00000000
13000000: global: f10=0x00000000
13000000: global: f11=0x00000000
13000000: global: f12=0x00000000
13000000: global: f13=0x00000000
13000000: global: f14=0x00000000
13000000: global: f15=0x00000000
13000000: global: f16=0x00000000
13000000: global: f17=0x00000000
13000000: global: f18=0x00000000
13000000: global: f19=0x00000000
13000000: global: f20=0x00000000
13000000: global: f21=0x00000000
13000000: global: f22=0x00000000
13000000: global: f23=0x00000000
13000000: global: f24=0x00000000
13000000: global: f25=0x00000000
13000000: global: f26=0x00000000
13000000: global: f27=0x00000000
13000000: global: f28=0x00000000
13000000: global: f29=0x00000000
13000000: global: f30=0x00000000
13000000: global: f31=0x00000000
13000000: system.cpu.memory: Log4GUI: memory: 13000000: 0: 100a4: addi x1, x1, 564
13000000: system.cpu.execute: Log4GUI: execute: 13000000: 0: 100a8: flw f9, 0(x1): 0
13000000: system.cpu.decode: Log4GUI: decode: 13000000: 0: 100ac: auipc x1, 1
13000000: system.cpu.fetch1: Log4GUI: fetch1: 13000000: 0: 100b0: <assembly>
14000000: system.cpu.writeback: Log4GUI: writeback: 14000000: 0: 100a4: addi x1, x1, 564
14000000: system.cpu.writeback: REGISTERS
14000000: global: x0=0x00000000
14000000: global: x1=0x000112d4
14000000: global: x2=0x7fffff90
14000000: global: x3=0x00000000
14000000: global: x4=0x00000000
14000000: global: x5=0x00000000
14000000: global: x6=0x00000000
14000000: global: x7=0x00000000
14000000: global: x8=0x00000000
14000000: global: x9=0x00000000
14000000: global: x10=0x00000000
14000000: global: x11=0x00000000
14000000: global: x12=0x00000000
14000000: global: x13=0x00000000
14000000: global: x14=0x00000000
14000000: global: x15=0x00000000
14000000: global: x16=0x00000000
14000000: global: x17=0x00000000
14000000: global: x18=0x00000000
14000000: global: x19=0x00000000
14000000: global: x20=0x00000000
14000000: global: x21=0x00000000
14000000: global: x22=0x00000000
14000000: global: x23=0x00000000
14000000: global: x24=0x00000000
14000000: global: x25=0x00000000
14000000: global: x26=0x00000000
14000000: global: x27=0x00000000
14000000: global: x28=0x00000000
14000000: global: x29=0x00000000
14000000: global: x30=0x00000000
14000000: global: x31=0x00000000
14000000: global: f0=0x00000000
14000000: global: f1=0x00000000
14000000: global: f2=0x00000000
14000000: global: f3=0x00000000
14000000: global: f4=0x00000000
14000000: global: f5=0x00000000
14000000: global: f6=0x00000000
14000000: global: f7=0x00000000
14000000: global: f8=0x00000000
14000000: global: f9=0x00000000
14000000: global: f10=0x00000000
14000000: global: f11=0x00000000
14000000: global: f12=0x00000000
14000000: global: f13=0x00000000
14000000: global: f14=0x00000000
14000000: global: f15=0x00000000
14000000: global: f16=0x00000000
14000000: global: f17=0x00000000
14000000: global: f18=0x00000000
14000000: global: f19=0x00000000
14000000: global: f20=0x00000000
14000000: global: f21=0x00000000
14000000: global: f22=0x00000000
14000000: global: f23=0x00000000
14000000: global: f24=0x00000000
14000000: global: f25=0x00000000
14000000: global: f26=0x00000000
14000000: global: f27=0x00000000
14000000: global: f28=0x00000000
14000000: global: f29=0x00000000
14000000: global: f30=0x00000000
14000000: global: f31=0x00000000
14000000: system.cpu.memory: Log4GUI: memory: 14000000: 0: 100a8: flw f9, 0(x1)
14000000: system.cpu.execute: Log4GUI: execute: 14000000: 0: 100ac: auipc x1, 1: 0
14000000: system.cpu.decode: Log4GUI: decode: 14000000: 0: 100b0: addi x1, x1, 952
14000000: system.cpu.fetch1: Log4GUI: fetch1: 14000000: 0: 100b4: <assembly>
15000000: system.cpu.memory: Log4GUI: memory: 15000000: 1: 100a8: flw f9, 0(x1)
15000000: system.cpu.execute: Log4GUI: execute: 15000000: 1: 100ac: auipc x1, 1: 0
15000000: system.cpu.decode: Log4GUI: decode: 15000000: 1: 100b0: addi x1, x1, 952
15000000: system.cpu.fetch1: Log4GUI: fetch1: 15000000: 1: 100b4: <assembly>
16000000: system.cpu.decode: Log4GUI: decode: 16000000: 1: 100b0: addi x1, x1, 952
16000000: system.cpu.fetch1: Log4GUI: fetch1: 16000000: 1: 100b4: <assembly>
17000000: system.cpu.writeback: Log4GUI: writeback: 17000000: 0: 100a8: flw f9, 0(x1)
17000000: system.cpu.writeback: REGISTERS
17000000: global: x0=0x00000000
17000000: global: x1=0x000112d4
17000000: global: x2=0x7fffff90
17000000: global: x3=0x00000000
17000000: global: x4=0x00000000
17000000: global: x5=0x00000000
17000000: global: x6=0x00000000
17000000: global: x7=0x00000000
17000000: global: x8=0x00000000
17000000: global: x9=0x00000000
17000000: global: x10=0x00000000
17000000: global: x11=0x00000000
17000000: global: x12=0x00000000
17000000: global: x13=0x00000000
17000000: global: x14=0x00000000
17000000: global: x15=0x00000000
17000000: global: x16=0x00000000
17000000: global: x17=0x00000000
17000000: global: x18=0x00000000
17000000: global: x19=0x00000000
17000000: global: x20=0x00000000
17000000: global: x21=0x00000000
17000000: global: x22=0x00000000
17000000: global: x23=0x00000000
17000000: global: x24=0x00000000
17000000: global: x25=0x00000000
17000000: global: x26=0x00000000
17000000: global: x27=0x00000000
17000000: global: x28=0x00000000
17000000: global: x29=0x00000000
17000000: global: x30=0x00000000
17000000: global: x31=0x00000000
17000000: global: f0=0x00000000
17000000: global: f1=0x00000000
17000000: global: f2=0x00000000
17000000: global: f3=0x00000000
17000000: global: f4=0x00000000
17000000: global: f5=0x00000000
17000000: global: f6=0x00000000
17000000: global: f7=0x00000000
17000000: global: f8=0x00000000
17000000: global: f9=0x00000000
17000000: global: f10=0x00000000
17000000: global: f11=0x00000000
17000000: global: f12=0x00000000
17000000: global: f13=0x00000000
17000000: global: f14=0x00000000
17000000: global: f15=0x00000000
17000000: global: f16=0x00000000
17000000: global: f17=0x00000000
17000000: global: f18=0x00000000
17000000: global: f19=0x00000000
17000000: global: f20=0x00000000
17000000: global: f21=0x00000000
17000000: global: f22=0x00000000
17000000: global: f23=0x00000000
17000000: global: f24=0x00000000
17000000: global: f25=0x00000000
17000000: global: f26=0x00000000
17000000: global: f27=0x00000000
17000000: global: f28=0x00000000
17000000: global: f29=0x00000000
17000000: global: f30=0x00000000
17000000: global: f31=0x00000000
17000000: system.cpu.memory: Log4GUI: memory: 17000000: 0: 100ac: auipc x1, 1
17000000: system.cpu.execute: Log4GUI: execute: 17000000: 0: 100b0: addi x1, x1, 952: 0
17000000: system.cpu.decode: Log4GUI: decode: 17000000: 0: 100b4: flw f9, 0(x1)
17000000: system.cpu.fetch1: Log4GUI: fetch1: 17000000: 0: 100b8: <assembly>
18000000: system.cpu.writeback: Log4GUI: writeback: 18000000: 0: 100ac: auipc x1, 1
18000000: system.cpu.writeback: REGISTERS
18000000: global: x0=0x00000000
18000000: global: x1=0x000110ac
18000000: global: x2=0x7fffff90
18000000: global: x3=0x00000000
18000000: global: x4=0x00000000
18000000: global: x5=0x00000000
18000000: global: x6=0x00000000
18000000: global: x7=0x00000000
18000000: global: x8=0x00000000
18000000: global: x9=0x00000000
18000000: global: x10=0x00000000
18000000: global: x11=0x00000000
18000000: global: x12=0x00000000
18000000: global: x13=0x00000000
18000000: global: x14=0x00000000
18000000: global: x15=0x00000000
18000000: global: x16=0x00000000
18000000: global: x17=0x00000000
18000000: global: x18=0x00000000
18000000: global: x19=0x00000000
18000000: global: x20=0x00000000
18000000: global: x21=0x00000000
18000000: global: x22=0x00000000
18000000: global: x23=0x00000000
18000000: global: x24=0x00000000
18000000: global: x25=0x00000000
18000000: global: x26=0x00000000
18000000: global: x27=0x00000000
18000000: global: x28=0x00000000
18000000: global: x29=0x00000000
18000000: global: x30=0x00000000
18000000: global: x31=0x00000000
18000000: global: f0=0x00000000
18000000: global: f1=0x00000000
18000000: global: f2=0x00000000
18000000: global: f3=0x00000000
18000000: global: f4=0x00000000
18000000: global: f5=0x00000000
18000000: global: f6=0x00000000
18000000: global: f7=0x00000000
18000000: global: f8=0x00000000
18000000: global: f9=0x00000000
18000000: global: f10=0x00000000
18000000: global: f11=0x00000000
18000000: global: f12=0x00000000
18000000: global: f13=0x00000000
18000000: global: f14=0x00000000
18000000: global: f15=0x00000000
18000000: global: f16=0x00000000
18000000: global: f17=0x00000000
18000000: global: f18=0x00000000
18000000: global: f19=0x00000000
18000000: global: f20=0x00000000
18000000: global: f21=0x00000000
18000000: global: f22=0x00000000
18000000: global: f23=0x00000000
18000000: global: f24=0x00000000
18000000: global: f25=0x00000000
18000000: global: f26=0x00000000
18000000: global: f27=0x00000000
18000000: global: f28=0x00000000
18000000: global: f29=0x00000000
18000000: global: f30=0x00000000
18000000: global: f31=0x00000000
18000000: system.cpu.memory: Log4GUI: memory: 18000000: 0: 100b0: addi x1, x1, 952
18000000: system.cpu.execute: Log4GUI: execute: 18000000: 0: 100b4: flw f9, 0(x1): 0
18000000: system.cpu.decode: Log4GUI: decode: 18000000: 0: 100b8: auipc x1, 1
18000000: system.cpu.fetch1: Log4GUI: fetch1: 18000000: 0: 100bc: <assembly>
19000000: system.cpu.writeback: Log4GUI: writeback: 19000000: 0: 100b0: addi x1, x1, 952
19000000: system.cpu.writeback: REGISTERS
19000000: global: x0=0x00000000
19000000: global: x1=0x00011464
19000000: global: x2=0x7fffff90
19000000: global: x3=0x00000000
19000000: global: x4=0x00000000
19000000: global: x5=0x00000000
19000000: global: x6=0x00000000
19000000: global: x7=0x00000000
19000000: global: x8=0x00000000
19000000: global: x9=0x00000000
19000000: global: x10=0x00000000
19000000: global: x11=0x00000000
19000000: global: x12=0x00000000
19000000: global: x13=0x00000000
19000000: global: x14=0x00000000
19000000: global: x15=0x00000000
19000000: global: x16=0x00000000
19000000: global: x17=0x00000000
19000000: global: x18=0x00000000
19000000: global: x19=0x00000000
19000000: global: x20=0x00000000
19000000: global: x21=0x00000000
19000000: global: x22=0x00000000
19000000: global: x23=0x00000000
19000000: global: x24=0x00000000
19000000: global: x25=0x00000000
19000000: global: x26=0x00000000
19000000: global: x27=0x00000000
19000000: global: x28=0x00000000
19000000: global: x29=0x00000000
19000000: global: x30=0x00000000
19000000: global: x31=0x00000000
19000000: global: f0=0x00000000
19000000: global: f1=0x00000000
19000000: global: f2=0x00000000
19000000: global: f3=0x00000000
19000000: global: f4=0x00000000
19000000: global: f5=0x00000000
19000000: global: f6=0x00000000
19000000: global: f7=0x00000000
19000000: global: f8=0x00000000
19000000: global: f9=0x00000000
19000000: global: f10=0x00000000
19000000: global: f11=0x00000000
19000000: global: f12=0x00000000
19000000: global: f13=0x00000000
19000000: global: f14=0x00000000
19000000: global: f15=0x00000000
19000000: global: f16=0x00000000
19000000: global: f17=0x00000000
19000000: global: f18=0x00000000
19000000: global: f19=0x00000000
19000000: global: f20=0x00000000
19000000: global: f21=0x00000000
19000000: global: f22=0x00000000
19000000: global: f23=0x00000000
19000000: global: f24=0x00000000
19000000: global: f25=0x00000000
19000000: global: f26=0x00000000
19000000: global: f27=0x00000000
19000000: global: f28=0x00000000
19000000: global: f29=0x00000000
19000000: global: f30=0x00000000
19000000: global: f31=0x00000000
19000000: system.cpu.memory: Log4GUI: memory: 19000000: 0: 100b4: flw f9, 0(x1)
19000000: system.cpu.execute: Log4GUI: execute: 19000000: 0: 100b8: auipc x1, 1: 0
19000000: system.cpu.decode: Log4GUI: decode: 19000000: 0: 100bc: addi x1, x1, 1340
19000000: system.cpu.fetch1: Log4GUI: fetch1: 19000000: 0: 100c0: <assembly>
20000000: system.cpu.memory: Log4GUI: memory: 20000000: 1: 100b4: flw f9, 0(x1)
20000000: system.cpu.execute: Log4GUI: execute: 20000000: 1: 100b8: auipc x1, 1: 0
20000000: system.cpu.decode: Log4GUI: decode: 20000000: 1: 100bc: addi x1, x1, 1340
20000000: system.cpu.fetch1: Log4GUI: fetch1: 20000000: 1: 100c0: <assembly>
21000000: system.cpu.decode: Log4GUI: decode: 21000000: 1: 100bc: addi x1, x1, 1340
21000000: system.cpu.fetch1: Log4GUI: fetch1: 21000000: 1: 100c0: <assembly>
22000000: system.cpu.writeback: Log4GUI: writeback: 22000000: 0: 100b4: flw f9, 0(x1)
22000000: system.cpu.writeback: REGISTERS
22000000: global: x0=0x00000000
22000000: global: x1=0x00011464
22000000: global: x2=0x7fffff90
22000000: global: x3=0x00000000
22000000: global: x4=0x00000000
22000000: global: x5=0x00000000
22000000: global: x6=0x00000000
22000000: global: x7=0x00000000
22000000: global: x8=0x00000000
22000000: global: x9=0x00000000
22000000: global: x10=0x00000000
22000000: global: x11=0x00000000
22000000: global: x12=0x00000000
22000000: global: x13=0x00000000
22000000: global: x14=0x00000000
22000000: global: x15=0x00000000
22000000: global: x16=0x00000000
22000000: global: x17=0x00000000
22000000: global: x18=0x00000000
22000000: global: x19=0x00000000
22000000: global: x20=0x00000000
22000000: global: x21=0x00000000
22000000: global: x22=0x00000000
22000000: global: x23=0x00000000
22000000: global: x24=0x00000000
22000000: global: x25=0x00000000
22000000: global: x26=0x00000000
22000000: global: x27=0x00000000
22000000: global: x28=0x00000000
22000000: global: x29=0x00000000
22000000: global: x30=0x00000000
22000000: global: x31=0x00000000
22000000: global: f0=0x00000000
22000000: global: f1=0x00000000
22000000: global: f2=0x00000000
22000000: global: f3=0x00000000
22000000: global: f4=0x00000000
22000000: global: f5=0x00000000
22000000: global: f6=0x00000000
22000000: global: f7=0x00000000
22000000: global: f8=0x00000000
22000000: global: f9=0x00000000
22000000: global: f10=0x00000000
22000000: global: f11=0x00000000
22000000: global: f12=0x00000000
22000000: global: f13=0x00000000
22000000: global: f14=0x00000000
22000000: global: f15=0x00000000
22000000: global: f16=0x00000000
22000000: global: f17=0x00000000
22000000: global: f18=0x00000000
22000000: global: f19=0x00000000
22000000: global: f20=0x00000000
22000000: global: f21=0x00000000
22000000: global: f22=0x00000000
22000000: global: f23=0x00000000
22000000: global: f24=0x00000000
22000000: global: f25=0x00000000
22000000: global: f26=0x00000000
22000000: global: f27=0x00000000
22000000: global: f28=0x00000000
22000000: global: f29=0x00000000
22000000: global: f30=0x00000000
22000000: global: f31=0x00000000
22000000: system.cpu.memory: Log4GUI: memory: 22000000: 0: 100b8: auipc x1, 1
22000000: system.cpu.execute: Log4GUI: execute: 22000000: 0: 100bc: addi x1, x1, 1340: 0
22000000: system.cpu.decode: Log4GUI: decode: 22000000: 0: 100c0: flw f9, 0(x1)
22000000: system.cpu.fetch1: Log4GUI: fetch1: 22000000: 0: 100c4: <assembly>
23000000: system.cpu.writeback: Log4GUI: writeback: 23000000: 0: 100b8: auipc x1, 1
23000000: system.cpu.writeback: REGISTERS
23000000: global: x0=0x00000000
23000000: global: x1=0x000110b8
23000000: global: x2=0x7fffff90
23000000: global: x3=0x00000000
23000000: global: x4=0x00000000
23000000: global: x5=0x00000000
23000000: global: x6=0x00000000
23000000: global: x7=0x00000000
23000000: global: x8=0x00000000
23000000: global: x9=0x00000000
23000000: global: x10=0x00000000
23000000: global: x11=0x00000000
23000000: global: x12=0x00000000
23000000: global: x13=0x00000000
23000000: global: x14=0x00000000
23000000: global: x15=0x00000000
23000000: global: x16=0x00000000
23000000: global: x17=0x00000000
23000000: global: x18=0x00000000
23000000: global: x19=0x00000000
23000000: global: x20=0x00000000
23000000: global: x21=0x00000000
23000000: global: x22=0x00000000
23000000: global: x23=0x00000000
23000000: global: x24=0x00000000
23000000: global: x25=0x00000000
23000000: global: x26=0x00000000
23000000: global: x27=0x00000000
23000000: global: x28=0x00000000
23000000: global: x29=0x00000000
23000000: global: x30=0x00000000
23000000: global: x31=0x00000000
23000000: global: f0=0x00000000
23000000: global: f1=0x00000000
23000000: global: f2=0x00000000
23000000: global: f3=0x00000000
23000000: global: f4=0x00000000
23000000: global: f5=0x00000000
23000000: global: f6=0x00000000
23000000: global: f7=0x00000000
23000000: global: f8=0x00000000
23000000: global: f9=0x00000000
23000000: global: f10=0x00000000
23000000: global: f11=0x00000000
23000000: global: f12=0x00000000
23000000: global: f13=0x00000000
23000000: global: f14=0x00000000
23000000: global: f15=0x00000000
23000000: global: f16=0x00000000
23000000: global: f17=0x00000000
23000000: global: f18=0x00000000
23000000: global: f19=0x00000000
23000000: global: f20=0x00000000
23000000: global: f21=0x00000000
23000000: global: f22=0x00000000
23000000: global: f23=0x00000000
23000000: global: f24=0x00000000
23000000: global: f25=0x00000000
23000000: global: f26=0x00000000
23000000: global: f27=0x00000000
23000000: global: f28=0x00000000
23000000: global: f29=0x00000000
23000000: global: f30=0x00000000
23000000: global: f31=0x00000000
23000000: system.cpu.memory: Log4GUI: memory: 23000000: 0: 100bc: addi x1, x1, 1340
23000000: system.cpu.execute: Log4GUI: execute: 23000000: 0: 100c0: flw f9, 0(x1): 0
23000000: system.cpu.decode: Log4GUI: decode: 23000000: 0: 100c4: auipc x1, 1
23000000: system.cpu.fetch1: Log4GUI: fetch1: 23000000: 0: 100c8: <assembly>
24000000: system.cpu.writeback: Log4GUI: writeback: 24000000: 0: 100bc: addi x1, x1, 1340
24000000: system.cpu.writeback: REGISTERS
24000000: global: x0=0x00000000
24000000: global: x1=0x000115f4
24000000: global: x2=0x7fffff90
24000000: global: x3=0x00000000
24000000: global: x4=0x00000000
24000000: global: x5=0x00000000
24000000: global: x6=0x00000000
24000000: global: x7=0x00000000
24000000: global: x8=0x00000000
24000000: global: x9=0x00000000
24000000: global: x10=0x00000000
24000000: global: x11=0x00000000
24000000: global: x12=0x00000000
24000000: global: x13=0x00000000
24000000: global: x14=0x00000000
24000000: global: x15=0x00000000
24000000: global: x16=0x00000000
24000000: global: x17=0x00000000
24000000: global: x18=0x00000000
24000000: global: x19=0x00000000
24000000: global: x20=0x00000000
24000000: global: x21=0x00000000
24000000: global: x22=0x00000000
24000000: global: x23=0x00000000
24000000: global: x24=0x00000000
24000000: global: x25=0x00000000
24000000: global: x26=0x00000000
24000000: global: x27=0x00000000
24000000: global: x28=0x00000000
24000000: global: x29=0x00000000
24000000: global: x30=0x00000000
24000000: global: x31=0x00000000
24000000: global: f0=0x00000000
24000000: global: f1=0x00000000
24000000: global: f2=0x00000000
24000000: global: f3=0x00000000
24000000: global: f4=0x00000000
24000000: global: f5=0x00000000
24000000: global: f6=0x00000000
24000000: global: f7=0x00000000
24000000: global: f8=0x00000000
24000000: global: f9=0x00000000
24000000: global: f10=0x00000000
24000000: global: f11=0x00000000
24000000: global: f12=0x00000000
24000000: global: f13=0x00000000
24000000: global: f14=0x00000000
24000000: global: f15=0x00000000
24000000: global: f16=0x00000000
24000000: global: f17=0x00000000
24000000: global: f18=0x00000000
24000000: global: f19=0x00000000
24000000: global: f20=0x00000000
24000000: global: f21=0x00000000
24000000: global: f22=0x00000000
24000000: global: f23=0x00000000
24000000: global: f24=0x00000000
24000000: global: f25=0x00000000
24000000: global: f26=0x00000000
24000000: global: f27=0x00000000
24000000: global: f28=0x00000000
24000000: global: f29=0x00000000
24000000: global: f30=0x00000000
24000000: global: f31=0x00000000
24000000: system.cpu.memory: Log4GUI: memory: 24000000: 0: 100c0: flw f9, 0(x1)
24000000: system.cpu.execute: Log4GUI: execute: 24000000: 0: 100c4: auipc x1, 1: 0
24000000: system.cpu.decode: Log4GUI: decode: 24000000: 0: 100c8: addi x1, x1, 1728
24000000: system.cpu.fetch1: Log4GUI: fetch1: 24000000: 0: 100cc: <assembly>
25000000: system.cpu.writeback: Log4GUI: writeback: 25000000: 0: 100c0: flw f9, 0(x1)
25000000: system.cpu.writeback: REGISTERS
25000000: global: x0=0x00000000
25000000: global: x1=0x000115f4
25000000: global: x2=0x7fffff90
25000000: global: x3=0x00000000
25000000: global: x4=0x00000000
25000000: global: x5=0x00000000
25000000: global: x6=0x00000000
25000000: global: x7=0x00000000
25000000: global: x8=0x00000000
25000000: global: x9=0x00000000
25000000: global: x10=0x00000000
25000000: global: x11=0x00000000
25000000: global: x12=0x00000000
25000000: global: x13=0x00000000
25000000: global: x14=0x00000000
25000000: global: x15=0x00000000
25000000: global: x16=0x00000000
25000000: global: x17=0x00000000
25000000: global: x18=0x00000000
25000000: global: x19=0x00000000
25000000: global: x20=0x00000000
25000000: global: x21=0x00000000
25000000: global: x22=0x00000000
25000000: global: x23=0x00000000
25000000: global: x24=0x00000000
25000000: global: x25=0x00000000
25000000: global: x26=0x00000000
25000000: global: x27=0x00000000
25000000: global: x28=0x00000000
25000000: global: x29=0x00000000
25000000: global: x30=0x00000000
25000000: global: x31=0x00000000
25000000: global: f0=0x00000000
25000000: global: f1=0x00000000
25000000: global: f2=0x00000000
25000000: global: f3=0x00000000
25000000: global: f4=0x00000000
25000000: global: f5=0x00000000
25000000: global: f6=0x00000000
25000000: global: f7=0x00000000
25000000: global: f8=0x00000000
25000000: global: f9=0x00000000
25000000: global: f10=0x00000000
25000000: global: f11=0x00000000
25000000: global: f12=0x00000000
25000000: global: f13=0x00000000
25000000: global: f14=0x00000000
25000000: global: f15=0x00000000
25000000: global: f16=0x00000000
25000000: global: f17=0x00000000
25000000: global: f18=0x00000000
25000000: global: f19=0x00000000
25000000: global: f20=0x00000000
25000000: global: f21=0x00000000
25000000: global: f22=0x00000000
25000000: global: f23=0x00000000
25000000: global: f24=0x00000000
25000000: global: f25=0x00000000
25000000: global: f26=0x00000000
25000000: global: f27=0x00000000
25000000: global: f28=0x00000000
25000000: global: f29=0x00000000
25000000: global: f30=0x00000000
25000000: global: f31=0x00000000
25000000: system.cpu.memory: Log4GUI: memory: 25000000: 0: 100c4: auipc x1, 1
25000000: system.cpu.execute: Log4GUI: execute: 25000000: 0: 100c8: addi x1, x1, 1728: 0
25000000: system.cpu.decode: Log4GUI: decode: 25000000: 0: 100cc: flw f9, 0(x1)
25000000: system.cpu.fetch1: Log4GUI: fetch1: 25000000: 0: 100d0: <assembly>
26000000: system.cpu.writeback: Log4GUI: writeback: 26000000: 0: 100c4: auipc x1, 1
26000000: system.cpu.writeback: REGISTERS
26000000: global: x0=0x00000000
26000000: global: x1=0x000110c4
26000000: global: x2=0x7fffff90
26000000: global: x3=0x00000000
26000000: global: x4=0x00000000
26000000: global: x5=0x00000000
26000000: global: x6=0x00000000
26000000: global: x7=0x00000000
26000000: global: x8=0x00000000
26000000: global: x9=0x00000000
26000000: global: x10=0x00000000
26000000: global: x11=0x00000000
26000000: global: x12=0x00000000
26000000: global: x13=0x00000000
26000000: global: x14=0x00000000
26000000: global: x15=0x00000000
26000000: global: x16=0x00000000
26000000: global: x17=0x00000000
26000000: global: x18=0x00000000
26000000: global: x19=0x00000000
26000000: global: x20=0x00000000
26000000: global: x21=0x00000000
26000000: global: x22=0x00000000
26000000: global: x23=0x00000000
26000000: global: x24=0x00000000
26000000: global: x25=0x00000000
26000000: global: x26=0x00000000
26000000: global: x27=0x00000000
26000000: global: x28=0x00000000
26000000: global: x29=0x00000000
26000000: global: x30=0x00000000
26000000: global: x31=0x00000000
26000000: global: f0=0x00000000
26000000: global: f1=0x00000000
26000000: global: f2=0x00000000
26000000: global: f3=0x00000000
26000000: global: f4=0x00000000
26000000: global: f5=0x00000000
26000000: global: f6=0x00000000
26000000: global: f7=0x00000000
26000000: global: f8=0x00000000
26000000: global: f9=0x00000000
26000000: global: f10=0x00000000
26000000: global: f11=0x00000000
26000000: global: f12=0x00000000
26000000: global: f13=0x00000000
26000000: global: f14=0x00000000
26000000: global: f15=0x00000000
26000000: global: f16=0x00000000
26000000: global: f17=0x00000000
26000000: global: f18=0x00000000
26000000: global: f19=0x00000000
26000000: global: f20=0x00000000
26000000: global: f21=0x00000000
26000000: global: f22=0x00000000
26000000: global: f23=0x00000000
26000000: global: f24=0x00000000
26000000: global: f25=0x00000000
26000000: global: f26=0x00000000
26000000: global: f27=0x00000000
26000000: global: f28=0x00000000
26000000: global: f29=0x00000000
26000000: global: f30=0x00000000
26000000: global: f31=0x00000000
26000000: system.cpu.memory: Log4GUI: memory: 26000000: 0: 100c8: addi x1, x1, 1728
26000000: system.cpu.execute: Log4GUI: execute: 26000000: 0: 100cc: flw f9, 0(x1): 0
26000000: system.cpu.decode: Log4GUI: decode: 26000000: 0: 100d0: addi x6, x0, 100
26000000: system.cpu.fetch1: Log4GUI: fetch1: 26000000: 0: 100d4: <assembly>
27000000: system.cpu.writeback: Log4GUI: writeback: 27000000: 0: 100c8: addi x1, x1, 1728
27000000: system.cpu.writeback: REGISTERS
27000000: global: x0=0x00000000
27000000: global: x1=0x00011784
27000000: global: x2=0x7fffff90
27000000: global: x3=0x00000000
27000000: global: x4=0x00000000
27000000: global: x5=0x00000000
27000000: global: x6=0x00000000
27000000: global: x7=0x00000000
27000000: global: x8=0x00000000
27000000: global: x9=0x00000000
27000000: global: x10=0x00000000
27000000: global: x11=0x00000000
27000000: global: x12=0x00000000
27000000: global: x13=0x00000000
27000000: global: x14=0x00000000
27000000: global: x15=0x00000000
27000000: global: x16=0x00000000
27000000: global: x17=0x00000000
27000000: global: x18=0x00000000
27000000: global: x19=0x00000000
27000000: global: x20=0x00000000
27000000: global: x21=0x00000000
27000000: global: x22=0x00000000
27000000: global: x23=0x00000000
27000000: global: x24=0x00000000
27000000: global: x25=0x00000000
27000000: global: x26=0x00000000
27000000: global: x27=0x00000000
27000000: global: x28=0x00000000
27000000: global: x29=0x00000000
27000000: global: x30=0x00000000
27000000: global: x31=0x00000000
27000000: global: f0=0x00000000
27000000: global: f1=0x00000000
27000000: global: f2=0x00000000
27000000: global: f3=0x00000000
27000000: global: f4=0x00000000
27000000: global: f5=0x00000000
27000000: global: f6=0x00000000
27000000: global: f7=0x00000000
27000000: global: f8=0x00000000
27000000: global: f9=0x00000000
27000000: global: f10=0x00000000
27000000: global: f11=0x00000000
27000000: global: f12=0x00000000
27000000: global: f13=0x00000000
27000000: global: f14=0x00000000
27000000: global: f15=0x00000000
27000000: global: f16=0x00000000
27000000: global: f17=0x00000000
27000000: global: f18=0x00000000
27000000: global: f19=0x00000000
27000000: global: f20=0x00000000
27000000: global: f21=0x00000000
27000000: global: f22=0x00000000
27000000: global: f23=0x00000000
27000000: global: f24=0x00000000
27000000: global: f25=0x00000000
27000000: global: f26=0x00000000
27000000: global: f27=0x00000000
27000000: global: f28=0x00000000
27000000: global: f29=0x00000000
27000000: global: f30=0x00000000
27000000: global: f31=0x00000000
27000000: system.cpu.memory: Log4GUI: memory: 27000000: 0: 100cc: flw f9, 0(x1)
27000000: system.cpu.execute: Log4GUI: execute: 27000000: 0: 100d0: addi x6, x0, 100: 0
27000000: system.cpu.decode: Log4GUI: decode: 27000000: 0: 100d4: auipc x1, 1
27000000: system.cpu.fetch1: Log4GUI: fetch1: 27000000: 0: 100d8: <assembly>
28000000: system.cpu.memory: Log4GUI: memory: 28000000: 1: 100cc: flw f9, 0(x1)
28000000: system.cpu.execute: Log4GUI: execute: 28000000: 1: 100d0: addi x6, x0, 100: 0
28000000: system.cpu.decode: Log4GUI: decode: 28000000: 1: 100d4: auipc x1, 1
28000000: system.cpu.fetch1: Log4GUI: fetch1: 28000000: 1: 100d8: <assembly>
29000000: system.cpu.decode: Log4GUI: decode: 29000000: 1: 100d4: auipc x1, 1
29000000: system.cpu.fetch1: Log4GUI: fetch1: 29000000: 1: 100d8: <assembly>
30000000: system.cpu.writeback: Log4GUI: writeback: 30000000: 0: 100cc: flw f9, 0(x1)
30000000: system.cpu.writeback: REGISTERS
30000000: global: x0=0x00000000
30000000: global: x1=0x00011784
30000000: global: x2=0x7fffff90
30000000: global: x3=0x00000000
30000000: global: x4=0x00000000
30000000: global: x5=0x00000000
30000000: global: x6=0x00000000
30000000: global: x7=0x00000000
30000000: global: x8=0x00000000
30000000: global: x9=0x00000000
30000000: global: x10=0x00000000
30000000: global: x11=0x00000000
30000000: global: x12=0x00000000
30000000: global: x13=0x00000000
30000000: global: x14=0x00000000
30000000: global: x15=0x00000000
30000000: global: x16=0x00000000
30000000: global: x17=0x00000000
30000000: global: x18=0x00000000
30000000: global: x19=0x00000000
30000000: global: x20=0x00000000
30000000: global: x21=0x00000000
30000000: global: x22=0x00000000
30000000: global: x23=0x00000000
30000000: global: x24=0x00000000
30000000: global: x25=0x00000000
30000000: global: x26=0x00000000
30000000: global: x27=0x00000000
30000000: global: x28=0x00000000
30000000: global: x29=0x00000000
30000000: global: x30=0x00000000
30000000: global: x31=0x00000000
30000000: global: f0=0x00000000
30000000: global: f1=0x00000000
30000000: global: f2=0x00000000
30000000: global: f3=0x00000000
30000000: global: f4=0x00000000
30000000: global: f5=0x00000000
30000000: global: f6=0x00000000
30000000: global: f7=0x00000000
30000000: global: f8=0x00000000
30000000: global: f9=0x00000000
30000000: global: f10=0x00000000
30000000: global: f11=0x00000000
30000000: global: f12=0x00000000
30000000: global: f13=0x00000000
30000000: global: f14=0x00000000
30000000: global: f15=0x00000000
30000000: global: f16=0x00000000
30000000: global: f17=0x00000000
30000000: global: f18=0x00000000
30000000: global: f19=0x00000000
30000000: global: f20=0x00000000
30000000: global: f21=0x00000000
30000000: global: f22=0x00000000
30000000: global: f23=0x00000000
30000000: global: f24=0x00000000
30000000: global: f25=0x00000000
30000000: global: f26=0x00000000
30000000: global: f27=0x00000000
30000000: global: f28=0x00000000
30000000: global: f29=0x00000000
30000000: global: f30=0x00000000
30000000: global: f31=0x00000000
30000000: system.cpu.memory: Log4GUI: memory: 30000000: 0: 100d0: addi x6, x0, 100
30000000: system.cpu.execute: Log4GUI: execute: 30000000: 0: 100d4: auipc x1, 1: 0
30000000: system.cpu.decode: Log4GUI: decode: 30000000: 0: 100d8: addi x1, x1, 112
30000000: system.cpu.fetch1: Log4GUI: fetch1: 30000000: 0: 100dc: <assembly>
31000000: system.cpu.writeback: Log4GUI: writeback: 31000000: 0: 100d0: addi x6, x0, 100
31000000: system.cpu.writeback: REGISTERS
31000000: global: x0=0x00000000
31000000: global: x1=0x00011784
31000000: global: x2=0x7fffff90
31000000: global: x3=0x00000000
31000000: global: x4=0x00000000
31000000: global: x5=0x00000000
31000000: global: x6=0x00000064
31000000: global: x7=0x00000000
31000000: global: x8=0x00000000
31000000: global: x9=0x00000000
31000000: global: x10=0x00000000
31000000: global: x11=0x00000000
31000000: global: x12=0x00000000
31000000: global: x13=0x00000000
31000000: global: x14=0x00000000
31000000: global: x15=0x00000000
31000000: global: x16=0x00000000
31000000: global: x17=0x00000000
31000000: global: x18=0x00000000
31000000: global: x19=0x00000000
31000000: global: x20=0x00000000
31000000: global: x21=0x00000000
31000000: global: x22=0x00000000
31000000: global: x23=0x00000000
31000000: global: x24=0x00000000
31000000: global: x25=0x00000000
31000000: global: x26=0x00000000
31000000: global: x27=0x00000000
31000000: global: x28=0x00000000
31000000: global: x29=0x00000000
31000000: global: x30=0x00000000
31000000: global: x31=0x00000000
31000000: global: f0=0x00000000
31000000: global: f1=0x00000000
31000000: global: f2=0x00000000
31000000: global: f3=0x00000000
31000000: global: f4=0x00000000
31000000: global: f5=0x00000000
31000000: global: f6=0x00000000
31000000: global: f7=0x00000000
31000000: global: f8=0x00000000
31000000: global: f9=0x00000000
31000000: global: f10=0x00000000
31000000: global: f11=0x00000000
31000000: global: f12=0x00000000
31000000: global: f13=0x00000000
31000000: global: f14=0x00000000
31000000: global: f15=0x00000000
31000000: global: f16=0x00000000
31000000: global: f17=0x00000000
31000000: global: f18=0x00000000
31000000: global: f19=0x00000000
31000000: global: f20=0x00000000
31000000: global: f21=0x00000000
31000000: global: f22=0x00000000
31000000: global: f23=0x00000000
31000000: global: f24=0x00000000
31000000: global: f25=0x00000000
31000000: global: f26=0x00000000
31000000: global: f27=0x00000000
31000000: global: f28=0x00000000
31000000: global: f29=0x00000000
31000000: global: f30=0x00000000
31000000: global: f31=0x00000000
31000000: system.cpu.memory: Log4GUI: memory: 31000000: 0: 100d4: auipc x1, 1
31000000: system.cpu.execute: Log4GUI: execute: 31000000: 0: 100d8: addi x1, x1, 112: 0
31000000: system.cpu.decode: Log4GUI: decode: 31000000: 0: 100dc: auipc x2, 1
31000000: system.cpu.fetch1: Log4GUI: fetch1: 31000000: 0: 100e0: <assembly>
32000000: system.cpu.writeback: Log4GUI: writeback: 32000000: 0: 100d4: auipc x1, 1
32000000: system.cpu.writeback: REGISTERS
32000000: global: x0=0x00000000
32000000: global: x1=0x000110d4
32000000: global: x2=0x7fffff90
32000000: global: x3=0x00000000
32000000: global: x4=0x00000000
32000000: global: x5=0x00000000
32000000: global: x6=0x00000064
32000000: global: x7=0x00000000
32000000: global: x8=0x00000000
32000000: global: x9=0x00000000
32000000: global: x10=0x00000000
32000000: global: x11=0x00000000
32000000: global: x12=0x00000000
32000000: global: x13=0x00000000
32000000: global: x14=0x00000000
32000000: global: x15=0x00000000
32000000: global: x16=0x00000000
32000000: global: x17=0x00000000
32000000: global: x18=0x00000000
32000000: global: x19=0x00000000
32000000: global: x20=0x00000000
32000000: global: x21=0x00000000
32000000: global: x22=0x00000000
32000000: global: x23=0x00000000
32000000: global: x24=0x00000000
32000000: global: x25=0x00000000
32000000: global: x26=0x00000000
32000000: global: x27=0x00000000
32000000: global: x28=0x00000000
32000000: global: x29=0x00000000
32000000: global: x30=0x00000000
32000000: global: x31=0x00000000
32000000: global: f0=0x00000000
32000000: global: f1=0x00000000
32000000: global: f2=0x00000000
32000000: global: f3=0x00000000
32000000: global: f4=0x00000000
32000000: global: f5=0x00000000
32000000: global: f6=0x00000000
32000000: global: f7=0x00000000
32000000: global: f8=0x00000000
32000000: global: f9=0x00000000
32000000: global: f10=0x00000000
32000000: global: f11=0x00000000
32000000: global: f12=0x00000000
32000000: global: f13=0x00000000
32000000: global: f14=0x00000000
32000000: global: f15=0x00000000
32000000: global: f16=0x00000000
32000000: global: f17=0x00000000
32000000: global: f18=0x00000000
32000000: global: f19=0x00000000
32000000: global: f20=0x00000000
32000000: global: f21=0x00000000
32000000: global: f22=0x00000000
32000000: global: f23=0x00000000
32000000: global: f24=0x00000000
32000000: global: f25=0x00000000
32000000: global: f26=0x00000000
32000000: global: f27=0x00000000
32000000: global: f28=0x00000000
32000000: global: f29=0x00000000
32000000: global: f30=0x00000000
32000000: global: f31=0x00000000
32000000: system.cpu.memory: Log4GUI: memory: 32000000: 0: 100d8: addi x1, x1, 112
32000000: system.cpu.execute: Log4GUI: execute: 32000000: 0: 100dc: auipc x2, 1: 0
32000000: system.cpu.decode: Log4GUI: decode: 32000000: 0: 100e0: addi x2, x2, 504
32000000: system.cpu.fetch1: Log4GUI: fetch1: 32000000: 0: 100e4: <assembly>
33000000: system.cpu.writeback: Log4GUI: writeback: 33000000: 0: 100d8: addi x1, x1, 112
33000000: system.cpu.writeback: REGISTERS
33000000: global: x0=0x00000000
33000000: global: x1=0x00011144
33000000: global: x2=0x7fffff90
33000000: global: x3=0x00000000
33000000: global: x4=0x00000000
33000000: global: x5=0x00000000
33000000: global: x6=0x00000064
33000000: global: x7=0x00000000
33000000: global: x8=0x00000000
33000000: global: x9=0x00000000
33000000: global: x10=0x00000000
33000000: global: x11=0x00000000
33000000: global: x12=0x00000000
33000000: global: x13=0x00000000
33000000: global: x14=0x00000000
33000000: global: x15=0x00000000
33000000: global: x16=0x00000000
33000000: global: x17=0x00000000
33000000: global: x18=0x00000000
33000000: global: x19=0x00000000
33000000: global: x20=0x00000000
33000000: global: x21=0x00000000
33000000: global: x22=0x00000000
33000000: global: x23=0x00000000
33000000: global: x24=0x00000000
33000000: global: x25=0x00000000
33000000: global: x26=0x00000000
33000000: global: x27=0x00000000
33000000: global: x28=0x00000000
33000000: global: x29=0x00000000
33000000: global: x30=0x00000000
33000000: global: x31=0x00000000
33000000: global: f0=0x00000000
33000000: global: f1=0x00000000
33000000: global: f2=0x00000000
33000000: global: f3=0x00000000
33000000: global: f4=0x00000000
33000000: global: f5=0x00000000
33000000: global: f6=0x00000000
33000000: global: f7=0x00000000
33000000: global: f8=0x00000000
33000000: global: f9=0x00000000
33000000: global: f10=0x00000000
33000000: global: f11=0x00000000
33000000: global: f12=0x00000000
33000000: global: f13=0x00000000
33000000: global: f14=0x00000000
33000000: global: f15=0x00000000
33000000: global: f16=0x00000000
33000000: global: f17=0x00000000
33000000: global: f18=0x00000000
33000000: global: f19=0x00000000
33000000: global: f20=0x00000000
33000000: global: f21=0x00000000
33000000: global: f22=0x00000000
33000000: global: f23=0x00000000
33000000: global: f24=0x00000000
33000000: global: f25=0x00000000
33000000: global: f26=0x00000000
33000000: global: f27=0x00000000
33000000: global: f28=0x00000000
33000000: global: f29=0x00000000
33000000: global: f30=0x00000000
33000000: global: f31=0x00000000
33000000: system.cpu.memory: Log4GUI: memory: 33000000: 0: 100dc: auipc x2, 1
33000000: system.cpu.execute: Log4GUI: execute: 33000000: 0: 100e0: addi x2, x2, 504: 0
33000000: system.cpu.decode: Log4GUI: decode: 33000000: 0: 100e4: auipc x3, 1
33000000: system.cpu.fetch1: Log4GUI: fetch1: 33000000: 0: 100e8: <assembly>
34000000: system.cpu.writeback: Log4GUI: writeback: 34000000: 0: 100dc: auipc x2, 1
34000000: system.cpu.writeback: REGISTERS
34000000: global: x0=0x00000000
34000000: global: x1=0x00011144
34000000: global: x2=0x000110dc
34000000: global: x3=0x00000000
34000000: global: x4=0x00000000
34000000: global: x5=0x00000000
34000000: global: x6=0x00000064
34000000: global: x7=0x00000000
34000000: global: x8=0x00000000
34000000: global: x9=0x00000000
34000000: global: x10=0x00000000
34000000: global: x11=0x00000000
34000000: global: x12=0x00000000
34000000: global: x13=0x00000000
34000000: global: x14=0x00000000
34000000: global: x15=0x00000000
34000000: global: x16=0x00000000
34000000: global: x17=0x00000000
34000000: global: x18=0x00000000
34000000: global: x19=0x00000000
34000000: global: x20=0x00000000
34000000: global: x21=0x00000000
34000000: global: x22=0x00000000
34000000: global: x23=0x00000000
34000000: global: x24=0x00000000
34000000: global: x25=0x00000000
34000000: global: x26=0x00000000
34000000: global: x27=0x00000000
34000000: global: x28=0x00000000
34000000: global: x29=0x00000000
34000000: global: x30=0x00000000
34000000: global: x31=0x00000000
34000000: global: f0=0x00000000
34000000: global: f1=0x00000000
34000000: global: f2=0x00000000
34000000: global: f3=0x00000000
34000000: global: f4=0x00000000
34000000: global: f5=0x00000000
34000000: global: f6=0x00000000
34000000: global: f7=0x00000000
34000000: global: f8=0x00000000
34000000: global: f9=0x00000000
34000000: global: f10=0x00000000
34000000: global: f11=0x00000000
34000000: global: f12=0x00000000
34000000: global: f13=0x00000000
34000000: global: f14=0x00000000
34000000: global: f15=0x00000000
34000000: global: f16=0x00000000
34000000: global: f17=0x00000000
34000000: global: f18=0x00000000
34000000: global: f19=0x00000000
34000000: global: f20=0x00000000
34000000: global: f21=0x00000000
34000000: global: f22=0x00000000
34000000: global: f23=0x00000000
34000000: global: f24=0x00000000
34000000: global: f25=0x00000000
34000000: global: f26=0x00000000
34000000: global: f27=0x00000000
34000000: global: f28=0x00000000
34000000: global: f29=0x00000000
34000000: global: f30=0x00000000
34000000: global: f31=0x00000000
34000000: system.cpu.memory: Log4GUI: memory: 34000000: 0: 100e0: addi x2, x2, 504
34000000: system.cpu.execute: Log4GUI: execute: 34000000: 0: 100e4: auipc x3, 1: 0
34000000: system.cpu.decode: Log4GUI: decode: 34000000: 0: 100e8: addi x3, x3, 896
34000000: system.cpu.fetch1: Log4GUI: fetch1: 34000000: 0: 100ec: <assembly>
35000000: system.cpu.writeback: Log4GUI: writeback: 35000000: 0: 100e0: addi x2, x2, 504
35000000: system.cpu.writeback: REGISTERS
35000000: global: x0=0x00000000
35000000: global: x1=0x00011144
35000000: global: x2=0x000112d4
35000000: global: x3=0x00000000
35000000: global: x4=0x00000000
35000000: global: x5=0x00000000
35000000: global: x6=0x00000064
35000000: global: x7=0x00000000
35000000: global: x8=0x00000000
35000000: global: x9=0x00000000
35000000: global: x10=0x00000000
35000000: global: x11=0x00000000
35000000: global: x12=0x00000000
35000000: global: x13=0x00000000
35000000: global: x14=0x00000000
35000000: global: x15=0x00000000
35000000: global: x16=0x00000000
35000000: global: x17=0x00000000
35000000: global: x18=0x00000000
35000000: global: x19=0x00000000
35000000: global: x20=0x00000000
35000000: global: x21=0x00000000
35000000: global: x22=0x00000000
35000000: global: x23=0x00000000
35000000: global: x24=0x00000000
35000000: global: x25=0x00000000
35000000: global: x26=0x00000000
35000000: global: x27=0x00000000
35000000: global: x28=0x00000000
35000000: global: x29=0x00000000
35000000: global: x30=0x00000000
35000000: global: x31=0x00000000
35000000: global: f0=0x00000000
35000000: global: f1=0x00000000
35000000: global: f2=0x00000000
35000000: global: f3=0x00000000
35000000: global: f4=0x00000000
35000000: global: f5=0x00000000
35000000: global: f6=0x00000000
35000000: global: f7=0x00000000
35000000: global: f8=0x00000000
35000000: global: f9=0x00000000
35000000: global: f10=0x00000000
35000000: global: f11=0x00000000
35000000: global: f12=0x00000000
35000000: global: f13=0x00000000
35000000: global: f14=0x00000000
35000000: global: f15=0x00000000
35000000: global: f16=0x00000000
35000000: global: f17=0x00000000
35000000: global: f18=0x00000000
35000000: global: f19=0x00000000
35000000: global: f20=0x00000000
35000000: global: f21=0x00000000
35000000: global: f22=0x00000000
35000000: global: f23=0x00000000
35000000: global: f24=0x00000000
35000000: global: f25=0x00000000
35000000: global: f26=0x00000000
35000000: global: f27=0x00000000
35000000: global: f28=0x00000000
35000000: global: f29=0x00000000
35000000: global: f30=0x00000000
35000000: global: f31=0x00000000
35000000: system.cpu.memory: Log4GUI: memory: 35000000: 0: 100e4: auipc x3, 1
35000000: system.cpu.execute: Log4GUI: execute: 35000000: 0: 100e8: addi x3, x3, 896: 0
35000000: system.cpu.decode: Log4GUI: decode: 35000000: 0: 100ec: auipc x4, 1
35000000: system.cpu.fetch1: Log4GUI: fetch1: 35000000: 0: 100f0: <assembly>
36000000: system.cpu.writeback: Log4GUI: writeback: 36000000: 0: 100e4: auipc x3, 1
36000000: system.cpu.writeback: REGISTERS
36000000: global: x0=0x00000000
36000000: global: x1=0x00011144
36000000: global: x2=0x000112d4
36000000: global: x3=0x000110e4
36000000: global: x4=0x00000000
36000000: global: x5=0x00000000
36000000: global: x6=0x00000064
36000000: global: x7=0x00000000
36000000: global: x8=0x00000000
36000000: global: x9=0x00000000
36000000: global: x10=0x00000000
36000000: global: x11=0x00000000
36000000: global: x12=0x00000000
36000000: global: x13=0x00000000
36000000: global: x14=0x00000000
36000000: global: x15=0x00000000
36000000: global: x16=0x00000000
36000000: global: x17=0x00000000
36000000: global: x18=0x00000000
36000000: global: x19=0x00000000
36000000: global: x20=0x00000000
36000000: global: x21=0x00000000
36000000: global: x22=0x00000000
36000000: global: x23=0x00000000
36000000: global: x24=0x00000000
36000000: global: x25=0x00000000
36000000: global: x26=0x00000000
36000000: global: x27=0x00000000
36000000: global: x28=0x00000000
36000000: global: x29=0x00000000
36000000: global: x30=0x00000000
36000000: global: x31=0x00000000
36000000: global: f0=0x00000000
36000000: global: f1=0x00000000
36000000: global: f2=0x00000000
36000000: global: f3=0x00000000
36000000: global: f4=0x00000000
36000000: global: f5=0x00000000
36000000: global: f6=0x00000000
36000000: global: f7=0x00000000
36000000: global: f8=0x00000000
36000000: global: f9=0x00000000
36000000: global: f10=0x00000000
36000000: global: f11=0x00000000
36000000: global: f12=0x00000000
36000000: global: f13=0x00000000
36000000: global: f14=0x00000000
36000000: global: f15=0x00000000
36000000: global: f16=0x00000000
36000000: global: f17=0x00000000
36000000: global: f18=0x00000000
36000000: global: f19=0x00000000
36000000: global: f20=0x00000000
36000000: global: f21=0x00000000
36000000: global: f22=0x00000000
36000000: global: f23=0x00000000
36000000: global: f24=0x00000000
36000000: global: f25=0x00000000
36000000: global: f26=0x00000000
36000000: global: f27=0x00000000
36000000: global: f28=0x00000000
36000000: global: f29=0x00000000
36000000: global: f30=0x00000000
36000000: global: f31=0x00000000
36000000: system.cpu.memory: Log4GUI: memory: 36000000: 0: 100e8: addi x3, x3, 896
36000000: system.cpu.execute: Log4GUI: execute: 36000000: 0: 100ec: auipc x4, 1: 0
36000000: system.cpu.decode: Log4GUI: decode: 36000000: 0: 100f0: addi x4, x4, 1288
36000000: system.cpu.fetch1: Log4GUI: fetch1: 36000000: 0: 100f4: <assembly>
37000000: system.cpu.writeback: Log4GUI: writeback: 37000000: 0: 100e8: addi x3, x3, 896
37000000: system.cpu.writeback: REGISTERS
37000000: global: x0=0x00000000
37000000: global: x1=0x00011144
37000000: global: x2=0x000112d4
37000000: global: x3=0x00011464
37000000: global: x4=0x00000000
37000000: global: x5=0x00000000
37000000: global: x6=0x00000064
37000000: global: x7=0x00000000
37000000: global: x8=0x00000000
37000000: global: x9=0x00000000
37000000: global: x10=0x00000000
37000000: global: x11=0x00000000
37000000: global: x12=0x00000000
37000000: global: x13=0x00000000
37000000: global: x14=0x00000000
37000000: global: x15=0x00000000
37000000: global: x16=0x00000000
37000000: global: x17=0x00000000
37000000: global: x18=0x00000000
37000000: global: x19=0x00000000
37000000: global: x20=0x00000000
37000000: global: x21=0x00000000
37000000: global: x22=0x00000000
37000000: global: x23=0x00000000
37000000: global: x24=0x00000000
37000000: global: x25=0x00000000
37000000: global: x26=0x00000000
37000000: global: x27=0x00000000
37000000: global: x28=0x00000000
37000000: global: x29=0x00000000
37000000: global: x30=0x00000000
37000000: global: x31=0x00000000
37000000: global: f0=0x00000000
37000000: global: f1=0x00000000
37000000: global: f2=0x00000000
37000000: global: f3=0x00000000
37000000: global: f4=0x00000000
37000000: global: f5=0x00000000
37000000: global: f6=0x00000000
37000000: global: f7=0x00000000
37000000: global: f8=0x00000000
37000000: global: f9=0x00000000
37000000: global: f10=0x00000000
37000000: global: f11=0x00000000
37000000: global: f12=0x00000000
37000000: global: f13=0x00000000
37000000: global: f14=0x00000000
37000000: global: f15=0x00000000
37000000: global: f16=0x00000000
37000000: global: f17=0x00000000
37000000: global: f18=0x00000000
37000000: global: f19=0x00000000
37000000: global: f20=0x00000000
37000000: global: f21=0x00000000
37000000: global: f22=0x00000000
37000000: global: f23=0x00000000
37000000: global: f24=0x00000000
37000000: global: f25=0x00000000
37000000: global: f26=0x00000000
37000000: global: f27=0x00000000
37000000: global: f28=0x00000000
37000000: global: f29=0x00000000
37000000: global: f30=0x00000000
37000000: global: f31=0x00000000
37000000: system.cpu.memory: Log4GUI: memory: 37000000: 0: 100ec: auipc x4, 1
37000000: system.cpu.execute: Log4GUI: execute: 37000000: 0: 100f0: addi x4, x4, 1288: 0
37000000: system.cpu.decode: Log4GUI: decode: 37000000: 0: 100f4: auipc x5, 1
37000000: system.cpu.fetch1: Log4GUI: fetch1: 37000000: 0: 100f8: <assembly>
38000000: system.cpu.writeback: Log4GUI: writeback: 38000000: 0: 100ec: auipc x4, 1
38000000: system.cpu.writeback: REGISTERS
38000000: global: x0=0x00000000
38000000: global: x1=0x00011144
38000000: global: x2=0x000112d4
38000000: global: x3=0x00011464
38000000: global: x4=0x000110ec
38000000: global: x5=0x00000000
38000000: global: x6=0x00000064
38000000: global: x7=0x00000000
38000000: global: x8=0x00000000
38000000: global: x9=0x00000000
38000000: global: x10=0x00000000
38000000: global: x11=0x00000000
38000000: global: x12=0x00000000
38000000: global: x13=0x00000000
38000000: global: x14=0x00000000
38000000: global: x15=0x00000000
38000000: global: x16=0x00000000
38000000: global: x17=0x00000000
38000000: global: x18=0x00000000
38000000: global: x19=0x00000000
38000000: global: x20=0x00000000
38000000: global: x21=0x00000000
38000000: global: x22=0x00000000
38000000: global: x23=0x00000000
38000000: global: x24=0x00000000
38000000: global: x25=0x00000000
38000000: global: x26=0x00000000
38000000: global: x27=0x00000000
38000000: global: x28=0x00000000
38000000: global: x29=0x00000000
38000000: global: x30=0x00000000
38000000: global: x31=0x00000000
38000000: global: f0=0x00000000
38000000: global: f1=0x00000000
38000000: global: f2=0x00000000
38000000: global: f3=0x00000000
38000000: global: f4=0x00000000
38000000: global: f5=0x00000000
38000000: global: f6=0x00000000
38000000: global: f7=0x00000000
38000000: global: f8=0x00000000
38000000: global: f9=0x00000000
38000000: global: f10=0x00000000
38000000: global: f11=0x00000000
38000000: global: f12=0x00000000
38000000: global: f13=0x00000000
38000000: global: f14=0x00000000
38000000: global: f15=0x00000000
38000000: global: f16=0x00000000
38000000: global: f17=0x00000000
38000000: global: f18=0x00000000
38000000: global: f19=0x00000000
38000000: global: f20=0x00000000
38000000: global: f21=0x00000000
38000000: global: f22=0x00000000
38000000: global: f23=0x00000000
38000000: global: f24=0x00000000
38000000: global: f25=0x00000000
38000000: global: f26=0x00000000
38000000: global: f27=0x00000000
38000000: global: f28=0x00000000
38000000: global: f29=0x00000000
38000000: global: f30=0x00000000
38000000: global: f31=0x00000000
38000000: system.cpu.memory: Log4GUI: memory: 38000000: 0: 100f0: addi x4, x4, 1288
38000000: system.cpu.execute: Log4GUI: execute: 38000000: 0: 100f4: auipc x5, 1: 0
38000000: system.cpu.decode: Log4GUI: decode: 38000000: 0: 100f8: addi x5, x5, 1680
38000000: system.cpu.fetch1: Log4GUI: fetch1: 38000000: 0: 100fc: <assembly>
39000000: system.cpu.writeback: Log4GUI: writeback: 39000000: 0: 100f0: addi x4, x4, 1288
39000000: system.cpu.writeback: REGISTERS
39000000: global: x0=0x00000000
39000000: global: x1=0x00011144
39000000: global: x2=0x000112d4
39000000: global: x3=0x00011464
39000000: global: x4=0x000115f4
39000000: global: x5=0x00000000
39000000: global: x6=0x00000064
39000000: global: x7=0x00000000
39000000: global: x8=0x00000000
39000000: global: x9=0x00000000
39000000: global: x10=0x00000000
39000000: global: x11=0x00000000
39000000: global: x12=0x00000000
39000000: global: x13=0x00000000
39000000: global: x14=0x00000000
39000000: global: x15=0x00000000
39000000: global: x16=0x00000000
39000000: global: x17=0x00000000
39000000: global: x18=0x00000000
39000000: global: x19=0x00000000
39000000: global: x20=0x00000000
39000000: global: x21=0x00000000
39000000: global: x22=0x00000000
39000000: global: x23=0x00000000
39000000: global: x24=0x00000000
39000000: global: x25=0x00000000
39000000: global: x26=0x00000000
39000000: global: x27=0x00000000
39000000: global: x28=0x00000000
39000000: global: x29=0x00000000
39000000: global: x30=0x00000000
39000000: global: x31=0x00000000
39000000: global: f0=0x00000000
39000000: global: f1=0x00000000
39000000: global: f2=0x00000000
39000000: global: f3=0x00000000
39000000: global: f4=0x00000000
39000000: global: f5=0x00000000
39000000: global: f6=0x00000000
39000000: global: f7=0x00000000
39000000: global: f8=0x00000000
39000000: global: f9=0x00000000
39000000: global: f10=0x00000000
39000000: global: f11=0x00000000
39000000: global: f12=0x00000000
39000000: global: f13=0x00000000
39000000: global: f14=0x00000000
39000000: global: f15=0x00000000
39000000: global: f16=0x00000000
39000000: global: f17=0x00000000
39000000: global: f18=0x00000000
39000000: global: f19=0x00000000
39000000: global: f20=0x00000000
39000000: global: f21=0x00000000
39000000: global: f22=0x00000000
39000000: global: f23=0x00000000
39000000: global: f24=0x00000000
39000000: global: f25=0x00000000
39000000: global: f26=0x00000000
39000000: global: f27=0x00000000
39000000: global: f28=0x00000000
39000000: global: f29=0x00000000
39000000: global: f30=0x00000000
39000000: global: f31=0x00000000
39000000: system.cpu.memory: Log4GUI: memory: 39000000: 0: 100f4: auipc x5, 1
39000000: system.cpu.execute: Log4GUI: execute: 39000000: 0: 100f8: addi x5, x5, 1680: 0
39000000: system.cpu.decode: Log4GUI: decode: 39000000: 0: 100fc: flw f1, 0(x1)
39000000: system.cpu.fetch1: Log4GUI: fetch1: 39000000: 0: 10100: <assembly>
40000000: system.cpu.writeback: Log4GUI: writeback: 40000000: 0: 100f4: auipc x5, 1
40000000: system.cpu.writeback: REGISTERS
40000000: global: x0=0x00000000
40000000: global: x1=0x00011144
40000000: global: x2=0x000112d4
40000000: global: x3=0x00011464
40000000: global: x4=0x000115f4
40000000: global: x5=0x000110f4
40000000: global: x6=0x00000064
40000000: global: x7=0x00000000
40000000: global: x8=0x00000000
40000000: global: x9=0x00000000
40000000: global: x10=0x00000000
40000000: global: x11=0x00000000
40000000: global: x12=0x00000000
40000000: global: x13=0x00000000
40000000: global: x14=0x00000000
40000000: global: x15=0x00000000
40000000: global: x16=0x00000000
40000000: global: x17=0x00000000
40000000: global: x18=0x00000000
40000000: global: x19=0x00000000
40000000: global: x20=0x00000000
40000000: global: x21=0x00000000
40000000: global: x22=0x00000000
40000000: global: x23=0x00000000
40000000: global: x24=0x00000000
40000000: global: x25=0x00000000
40000000: global: x26=0x00000000
40000000: global: x27=0x00000000
40000000: global: x28=0x00000000
40000000: global: x29=0x00000000
40000000: global: x30=0x00000000
40000000: global: x31=0x00000000
40000000: global: f0=0x00000000
40000000: global: f1=0x00000000
40000000: global: f2=0x00000000
40000000: global: f3=0x00000000
40000000: global: f4=0x00000000
40000000: global: f5=0x00000000
40000000: global: f6=0x00000000
40000000: global: f7=0x00000000
40000000: global: f8=0x00000000
40000000: global: f9=0x00000000
40000000: global: f10=0x00000000
40000000: global: f11=0x00000000
40000000: global: f12=0x00000000
40000000: global: f13=0x00000000
40000000: global: f14=0x00000000
40000000: global: f15=0x00000000
40000000: global: f16=0x00000000
40000000: global: f17=0x00000000
40000000: global: f18=0x00000000
40000000: global: f19=0x00000000
40000000: global: f20=0x00000000
40000000: global: f21=0x00000000
40000000: global: f22=0x00000000
40000000: global: f23=0x00000000
40000000: global: f24=0x00000000
40000000: global: f25=0x00000000
40000000: global: f26=0x00000000
40000000: global: f27=0x00000000
40000000: global: f28=0x00000000
40000000: global: f29=0x00000000
40000000: global: f30=0x00000000
40000000: global: f31=0x00000000
40000000: system.cpu.memory: Log4GUI: memory: 40000000: 0: 100f8: addi x5, x5, 1680
40000000: system.cpu.execute: Log4GUI: execute: 40000000: 0: 100fc: flw f1, 0(x1): 0
40000000: system.cpu.decode: Log4GUI: decode: 40000000: 0: 10100: flw f2, 0(x2)
40000000: system.cpu.fetch1: Log4GUI: fetch1: 40000000: 0: 10104: <assembly>
41000000: system.cpu.writeback: Log4GUI: writeback: 41000000: 0: 100f8: addi x5, x5, 1680
41000000: system.cpu.writeback: REGISTERS
41000000: global: x0=0x00000000
41000000: global: x1=0x00011144
41000000: global: x2=0x000112d4
41000000: global: x3=0x00011464
41000000: global: x4=0x000115f4
41000000: global: x5=0x00011784
41000000: global: x6=0x00000064
41000000: global: x7=0x00000000
41000000: global: x8=0x00000000
41000000: global: x9=0x00000000
41000000: global: x10=0x00000000
41000000: global: x11=0x00000000
41000000: global: x12=0x00000000
41000000: global: x13=0x00000000
41000000: global: x14=0x00000000
41000000: global: x15=0x00000000
41000000: global: x16=0x00000000
41000000: global: x17=0x00000000
41000000: global: x18=0x00000000
41000000: global: x19=0x00000000
41000000: global: x20=0x00000000
41000000: global: x21=0x00000000
41000000: global: x22=0x00000000
41000000: global: x23=0x00000000
41000000: global: x24=0x00000000
41000000: global: x25=0x00000000
41000000: global: x26=0x00000000
41000000: global: x27=0x00000000
41000000: global: x28=0x00000000
41000000: global: x29=0x00000000
41000000: global: x30=0x00000000
41000000: global: x31=0x00000000
41000000: global: f0=0x00000000
41000000: global: f1=0x00000000
41000000: global: f2=0x00000000
41000000: global: f3=0x00000000
41000000: global: f4=0x00000000
41000000: global: f5=0x00000000
41000000: global: f6=0x00000000
41000000: global: f7=0x00000000
41000000: global: f8=0x00000000
41000000: global: f9=0x00000000
41000000: global: f10=0x00000000
41000000: global: f11=0x00000000
41000000: global: f12=0x00000000
41000000: global: f13=0x00000000
41000000: global: f14=0x00000000
41000000: global: f15=0x00000000
41000000: global: f16=0x00000000
41000000: global: f17=0x00000000
41000000: global: f18=0x00000000
41000000: global: f19=0x00000000
41000000: global: f20=0x00000000
41000000: global: f21=0x00000000
41000000: global: f22=0x00000000
41000000: global: f23=0x00000000
41000000: global: f24=0x00000000
41000000: global: f25=0x00000000
41000000: global: f26=0x00000000
41000000: global: f27=0x00000000
41000000: global: f28=0x00000000
41000000: global: f29=0x00000000
41000000: global: f30=0x00000000
41000000: global: f31=0x00000000
41000000: system.cpu.memory: Log4GUI: memory: 41000000: 0: 100fc: flw f1, 0(x1)
41000000: system.cpu.execute: Log4GUI: execute: 41000000: 0: 10100: flw f2, 0(x2): 0
41000000: system.cpu.decode: Log4GUI: decode: 41000000: 0: 10104: fmul_s f5, f1, f2
41000000: system.cpu.fetch1: Log4GUI: fetch1: 41000000: 0: 10108: <assembly>
42000000: system.cpu.writeback: Log4GUI: writeback: 42000000: 0: 100fc: flw f1, 0(x1)
42000000: system.cpu.writeback: REGISTERS
42000000: global: x0=0x00000000
42000000: global: x1=0x00011144
42000000: global: x2=0x000112d4
42000000: global: x3=0x00011464
42000000: global: x4=0x000115f4
42000000: global: x5=0x00011784
42000000: global: x6=0x00000064
42000000: global: x7=0x00000000
42000000: global: x8=0x00000000
42000000: global: x9=0x00000000
42000000: global: x10=0x00000000
42000000: global: x11=0x00000000
42000000: global: x12=0x00000000
42000000: global: x13=0x00000000
42000000: global: x14=0x00000000
42000000: global: x15=0x00000000
42000000: global: x16=0x00000000
42000000: global: x17=0x00000000
42000000: global: x18=0x00000000
42000000: global: x19=0x00000000
42000000: global: x20=0x00000000
42000000: global: x21=0x00000000
42000000: global: x22=0x00000000
42000000: global: x23=0x00000000
42000000: global: x24=0x00000000
42000000: global: x25=0x00000000
42000000: global: x26=0x00000000
42000000: global: x27=0x00000000
42000000: global: x28=0x00000000
42000000: global: x29=0x00000000
42000000: global: x30=0x00000000
42000000: global: x31=0x00000000
42000000: global: f0=0x00000000
42000000: global: f1=0x00000000
42000000: global: f2=0x00000000
42000000: global: f3=0x00000000
42000000: global: f4=0x00000000
42000000: global: f5=0x00000000
42000000: global: f6=0x00000000
42000000: global: f7=0x00000000
42000000: global: f8=0x00000000
42000000: global: f9=0x00000000
42000000: global: f10=0x00000000
42000000: global: f11=0x00000000
42000000: global: f12=0x00000000
42000000: global: f13=0x00000000
42000000: global: f14=0x00000000
42000000: global: f15=0x00000000
42000000: global: f16=0x00000000
42000000: global: f17=0x00000000
42000000: global: f18=0x00000000
42000000: global: f19=0x00000000
42000000: global: f20=0x00000000
42000000: global: f21=0x00000000
42000000: global: f22=0x00000000
42000000: global: f23=0x00000000
42000000: global: f24=0x00000000
42000000: global: f25=0x00000000
42000000: global: f26=0x00000000
42000000: global: f27=0x00000000
42000000: global: f28=0x00000000
42000000: global: f29=0x00000000
42000000: global: f30=0x00000000
42000000: global: f31=0x00000000
42000000: system.cpu.memory: Log4GUI: memory: 42000000: 0: 10100: flw f2, 0(x2)
42000000: system.cpu.decode: Log4GUI: decode: 42000000: 1: 10104: fmul_s f5, f1, f2
42000000: system.cpu.fetch1: Log4GUI: fetch1: 42000000: 1: 10108: <assembly>
43000000: system.cpu.writeback: Log4GUI: writeback: 43000000: 0: 10100: flw f2, 0(x2)
43000000: system.cpu.writeback: REGISTERS
43000000: global: x0=0x00000000
43000000: global: x1=0x00011144
43000000: global: x2=0x000112d4
43000000: global: x3=0x00011464
43000000: global: x4=0x000115f4
43000000: global: x5=0x00011784
43000000: global: x6=0x00000064
43000000: global: x7=0x00000000
43000000: global: x8=0x00000000
43000000: global: x9=0x00000000
43000000: global: x10=0x00000000
43000000: global: x11=0x00000000
43000000: global: x12=0x00000000
43000000: global: x13=0x00000000
43000000: global: x14=0x00000000
43000000: global: x15=0x00000000
43000000: global: x16=0x00000000
43000000: global: x17=0x00000000
43000000: global: x18=0x00000000
43000000: global: x19=0x00000000
43000000: global: x20=0x00000000
43000000: global: x21=0x00000000
43000000: global: x22=0x00000000
43000000: global: x23=0x00000000
43000000: global: x24=0x00000000
43000000: global: x25=0x00000000
43000000: global: x26=0x00000000
43000000: global: x27=0x00000000
43000000: global: x28=0x00000000
43000000: global: x29=0x00000000
43000000: global: x30=0x00000000
43000000: global: x31=0x00000000
43000000: global: f0=0x00000000
43000000: global: f1=0x00000000
43000000: global: f2=0x00000000
43000000: global: f3=0x00000000
43000000: global: f4=0x00000000
43000000: global: f5=0x00000000
43000000: global: f6=0x00000000
43000000: global: f7=0x00000000
43000000: global: f8=0x00000000
43000000: global: f9=0x00000000
43000000: global: f10=0x00000000
43000000: global: f11=0x00000000
43000000: global: f12=0x00000000
43000000: global: f13=0x00000000
43000000: global: f14=0x00000000
43000000: global: f15=0x00000000
43000000: global: f16=0x00000000
43000000: global: f17=0x00000000
43000000: global: f18=0x00000000
43000000: global: f19=0x00000000
43000000: global: f20=0x00000000
43000000: global: f21=0x00000000
43000000: global: f22=0x00000000
43000000: global: f23=0x00000000
43000000: global: f24=0x00000000
43000000: global: f25=0x00000000
43000000: global: f26=0x00000000
43000000: global: f27=0x00000000
43000000: global: f28=0x00000000
43000000: global: f29=0x00000000
43000000: global: f30=0x00000000
43000000: global: f31=0x00000000
43000000: system.cpu.execute: Log4GUI: execute: 43000000: 0: 10104: fmul_s f5, f1, f2: 4
43000000: system.cpu.decode: Log4GUI: decode: 43000000: 0: 10108: flw f3, 0(x3)
43000000: system.cpu.fetch1: Log4GUI: fetch1: 43000000: 0: 1010c: <assembly>
44000000: system.cpu.execute: Log4GUI: execute: 44000000: 0: 10108: flw f3, 0(x3): 0
44000000: system.cpu.execute: Log4GUI: execute: 44000000: 0: 10104: fmul_s f5, f1, f2: 4
44000000: system.cpu.decode: Log4GUI: decode: 44000000: 0: 1010c: fdiv_s f6, f5, f3
44000000: system.cpu.fetch1: Log4GUI: fetch1: 44000000: 0: 10110: <assembly>
45000000: system.cpu.memory: Log4GUI: memory: 45000000: 0: 10108: flw f3, 0(x3)
45000000: system.cpu.execute: Log4GUI: execute: 45000000: 0: 10104: fmul_s f5, f1, f2: 4
45000000: system.cpu.decode: Log4GUI: decode: 45000000: 1: 1010c: fdiv_s f6, f5, f3
45000000: system.cpu.fetch1: Log4GUI: fetch1: 45000000: 1: 10110: <assembly>
46000000: system.cpu.writeback: Log4GUI: writeback: 46000000: 0: 10108: flw f3, 0(x3)
46000000: system.cpu.writeback: REGISTERS
46000000: global: x0=0x00000000
46000000: global: x1=0x00011144
46000000: global: x2=0x000112d4
46000000: global: x3=0x00011464
46000000: global: x4=0x000115f4
46000000: global: x5=0x00011784
46000000: global: x6=0x00000064
46000000: global: x7=0x00000000
46000000: global: x8=0x00000000
46000000: global: x9=0x00000000
46000000: global: x10=0x00000000
46000000: global: x11=0x00000000
46000000: global: x12=0x00000000
46000000: global: x13=0x00000000
46000000: global: x14=0x00000000
46000000: global: x15=0x00000000
46000000: global: x16=0x00000000
46000000: global: x17=0x00000000
46000000: global: x18=0x00000000
46000000: global: x19=0x00000000
46000000: global: x20=0x00000000
46000000: global: x21=0x00000000
46000000: global: x22=0x00000000
46000000: global: x23=0x00000000
46000000: global: x24=0x00000000
46000000: global: x25=0x00000000
46000000: global: x26=0x00000000
46000000: global: x27=0x00000000
46000000: global: x28=0x00000000
46000000: global: x29=0x00000000
46000000: global: x30=0x00000000
46000000: global: x31=0x00000000
46000000: global: f0=0x00000000
46000000: global: f1=0x00000000
46000000: global: f2=0x00000000
46000000: global: f3=0x00000000
46000000: global: f4=0x00000000
46000000: global: f5=0x00000000
46000000: global: f6=0x00000000
46000000: global: f7=0x00000000
46000000: global: f8=0x00000000
46000000: global: f9=0x00000000
46000000: global: f10=0x00000000
46000000: global: f11=0x00000000
46000000: global: f12=0x00000000
46000000: global: f13=0x00000000
46000000: global: f14=0x00000000
46000000: global: f15=0x00000000
46000000: global: f16=0x00000000
46000000: global: f17=0x00000000
46000000: global: f18=0x00000000
46000000: global: f19=0x00000000
46000000: global: f20=0x00000000
46000000: global: f21=0x00000000
46000000: global: f22=0x00000000
46000000: global: f23=0x00000000
46000000: global: f24=0x00000000
46000000: global: f25=0x00000000
46000000: global: f26=0x00000000
46000000: global: f27=0x00000000
46000000: global: f28=0x00000000
46000000: global: f29=0x00000000
46000000: global: f30=0x00000000
46000000: global: f31=0x00000000
46000000: system.cpu.execute: Log4GUI: execute: 46000000: 0: 10104: fmul_s f5, f1, f2: 4
46000000: system.cpu.decode: Log4GUI: decode: 46000000: 1: 1010c: fdiv_s f6, f5, f3
46000000: system.cpu.fetch1: Log4GUI: fetch1: 46000000: 1: 10110: <assembly>
47000000: system.cpu.execute: Log4GUI: execute: 47000000: 0: 10104: fmul_s f5, f1, f2: 4
47000000: system.cpu.decode: Log4GUI: decode: 47000000: 1: 1010c: fdiv_s f6, f5, f3
47000000: system.cpu.fetch1: Log4GUI: fetch1: 47000000: 1: 10110: <assembly>
48000000: system.cpu.memory: Log4GUI: memory: 48000000: 0: 10104: fmul_s f5, f1, f2
48000000: system.cpu.execute: Log4GUI: execute: 48000000: 0: 1010c: fdiv_s f6, f5, f3: 5
48000000: system.cpu.decode: Log4GUI: decode: 48000000: 0: 10110: fsw f5, 0(x4)
48000000: system.cpu.fetch1: Log4GUI: fetch1: 48000000: 0: 10114: <assembly>
49000000: system.cpu.writeback: Log4GUI: writeback: 49000000: 0: 10104: fmul_s f5, f1, f2
49000000: system.cpu.writeback: REGISTERS
49000000: global: x0=0x00000000
49000000: global: x1=0x00011144
49000000: global: x2=0x000112d4
49000000: global: x3=0x00011464
49000000: global: x4=0x000115f4
49000000: global: x5=0x00011784
49000000: global: x6=0x00000064
49000000: global: x7=0x00000000
49000000: global: x8=0x00000000
49000000: global: x9=0x00000000
49000000: global: x10=0x00000000
49000000: global: x11=0x00000000
49000000: global: x12=0x00000000
49000000: global: x13=0x00000000
49000000: global: x14=0x00000000
49000000: global: x15=0x00000000
49000000: global: x16=0x00000000
49000000: global: x17=0x00000000
49000000: global: x18=0x00000000
49000000: global: x19=0x00000000
49000000: global: x20=0x00000000
49000000: global: x21=0x00000000
49000000: global: x22=0x00000000
49000000: global: x23=0x00000000
49000000: global: x24=0x00000000
49000000: global: x25=0x00000000
49000000: global: x26=0x00000000
49000000: global: x27=0x00000000
49000000: global: x28=0x00000000
49000000: global: x29=0x00000000
49000000: global: x30=0x00000000
49000000: global: x31=0x00000000
49000000: global: f0=0x00000000
49000000: global: f1=0x00000000
49000000: global: f2=0x00000000
49000000: global: f3=0x00000000
49000000: global: f4=0x00000000
49000000: global: f5=0x00000000
49000000: global: f6=0x00000000
49000000: global: f7=0x00000000
49000000: global: f8=0x00000000
49000000: global: f9=0x00000000
49000000: global: f10=0x00000000
49000000: global: f11=0x00000000
49000000: global: f12=0x00000000
49000000: global: f13=0x00000000
49000000: global: f14=0x00000000
49000000: global: f15=0x00000000
49000000: global: f16=0x00000000
49000000: global: f17=0x00000000
49000000: global: f18=0x00000000
49000000: global: f19=0x00000000
[...]
2334000000: global: f17=0x00000000
2334000000: global: f18=0x00000000
2334000000: global: f19=0x00000000
2334000000: global: f20=0x00000000
2334000000: global: f21=0x00000000
2334000000: global: f22=0x00000000
2334000000: global: f23=0x00000000
2334000000: global: f24=0x00000000
2334000000: global: f25=0x00000000
2334000000: global: f26=0x00000000
2334000000: global: f27=0x00000000
2334000000: global: f28=0x00000000
2334000000: global: f29=0x00000000
2334000000: global: f30=0x00000000
2334000000: global: f31=0x00000000
2334000000: system.cpu.memory: Log4GUI: memory: 2334000000: 0: 10120: addi x3, x3, 4
2334000000: system.cpu.execute: Log4GUI: execute: 2334000000: 0: 10124: addi x4, x4, 4: 0
2334000000: system.cpu.decode: Log4GUI: decode: 2334000000: 0: 10128: addi x5, x5, 4
2334000000: system.cpu.fetch1: Log4GUI: fetch1: 2334000000: 0: 1012c: <assembly>
2335000000: system.cpu.writeback: Log4GUI: writeback: 2335000000: 0: 10120: addi x3, x3, 4
2335000000: system.cpu.writeback: REGISTERS
2335000000: global: x0=0x00000000
2335000000: global: x1=0x000112d4
2335000000: global: x2=0x00011464
2335000000: global: x3=0x000115f4
2335000000: global: x4=0x00011780
2335000000: global: x5=0x00011910
2335000000: global: x6=0x00000001
2335000000: global: x7=0x00000000
2335000000: global: x8=0x00000000
2335000000: global: x9=0x00000000
2335000000: global: x10=0x00000000
2335000000: global: x11=0x00000000
2335000000: global: x12=0x00000000
2335000000: global: x13=0x00000000
2335000000: global: x14=0x00000000
2335000000: global: x15=0x00000000
2335000000: global: x16=0x00000000
2335000000: global: x17=0x00000000
2335000000: global: x18=0x00000000
2335000000: global: x19=0x00000000
2335000000: global: x20=0x00000000
2335000000: global: x21=0x00000000
2335000000: global: x22=0x00000000
2335000000: global: x23=0x00000000
2335000000: global: x24=0x00000000
2335000000: global: x25=0x00000000
2335000000: global: x26=0x00000000
2335000000: global: x27=0x00000000
2335000000: global: x28=0x00000000
2335000000: global: x29=0x00000000
2335000000: global: x30=0x00000000
2335000000: global: x31=0x00000000
2335000000: global: f0=0x00000000
2335000000: global: f1=0x419f3333
2335000000: global: f2=0x419f3333
2335000000: global: f3=0x419f3333
2335000000: global: f4=0x00000000
2335000000: global: f5=0x43c60147
2335000000: global: f6=0x419f3333
2335000000: global: f7=0x00000000
2335000000: global: f8=0x00000000
2335000000: global: f9=0x00000000
2335000000: global: f10=0x00000000
2335000000: global: f11=0x00000000
2335000000: global: f12=0x00000000
2335000000: global: f13=0x00000000
2335000000: global: f14=0x00000000
2335000000: global: f15=0x00000000
2335000000: global: f16=0x00000000
2335000000: global: f17=0x00000000
2335000000: global: f18=0x00000000
2335000000: global: f19=0x00000000
2335000000: global: f20=0x00000000
2335000000: global: f21=0x00000000
2335000000: global: f22=0x00000000
2335000000: global: f23=0x00000000
2335000000: global: f24=0x00000000
2335000000: global: f25=0x00000000
2335000000: global: f26=0x00000000
2335000000: global: f27=0x00000000
2335000000: global: f28=0x00000000
2335000000: global: f29=0x00000000
2335000000: global: f30=0x00000000
2335000000: global: f31=0x00000000
2335000000: system.cpu.memory: Log4GUI: memory: 2335000000: 0: 10124: addi x4, x4, 4
2335000000: system.cpu.execute: Log4GUI: execute: 2335000000: 0: 10128: addi x5, x5, 4: 0
2335000000: system.cpu.decode: Log4GUI: decode: 2335000000: 0: 1012c: addi x6, x6, -1
2335000000: system.cpu.fetch1: Log4GUI: fetch1: 2335000000: 0: 10130: <assembly>
2336000000: system.cpu.writeback: Log4GUI: writeback: 2336000000: 0: 10124: addi x4, x4, 4
2336000000: system.cpu.writeback: REGISTERS
2336000000: global: x0=0x00000000
2336000000: global: x1=0x000112d4
2336000000: global: x2=0x00011464
2336000000: global: x3=0x000115f4
2336000000: global: x4=0x00011784
2336000000: global: x5=0x00011910
2336000000: global: x6=0x00000001
2336000000: global: x7=0x00000000
2336000000: global: x8=0x00000000
2336000000: global: x9=0x00000000
2336000000: global: x10=0x00000000
2336000000: global: x11=0x00000000
2336000000: global: x12=0x00000000
2336000000: global: x13=0x00000000
2336000000: global: x14=0x00000000
2336000000: global: x15=0x00000000
2336000000: global: x16=0x00000000
2336000000: global: x17=0x00000000
2336000000: global: x18=0x00000000
2336000000: global: x19=0x00000000
2336000000: global: x20=0x00000000
2336000000: global: x21=0x00000000
2336000000: global: x22=0x00000000
2336000000: global: x23=0x00000000
2336000000: global: x24=0x00000000
2336000000: global: x25=0x00000000
2336000000: global: x26=0x00000000
2336000000: global: x27=0x00000000
2336000000: global: x28=0x00000000
2336000000: global: x29=0x00000000
2336000000: global: x30=0x00000000
2336000000: global: x31=0x00000000
2336000000: global: f0=0x00000000
2336000000: global: f1=0x419f3333
2336000000: global: f2=0x419f3333
2336000000: global: f3=0x419f3333
2336000000: global: f4=0x00000000
2336000000: global: f5=0x43c60147
2336000000: global: f6=0x419f3333
2336000000: global: f7=0x00000000
2336000000: global: f8=0x00000000
2336000000: global: f9=0x00000000
2336000000: global: f10=0x00000000
2336000000: global: f11=0x00000000
2336000000: global: f12=0x00000000
2336000000: global: f13=0x00000000
2336000000: global: f14=0x00000000
2336000000: global: f15=0x00000000
2336000000: global: f16=0x00000000
2336000000: global: f17=0x00000000
2336000000: global: f18=0x00000000
2336000000: global: f19=0x00000000
2336000000: global: f20=0x00000000
2336000000: global: f21=0x00000000
2336000000: global: f22=0x00000000
2336000000: global: f23=0x00000000
2336000000: global: f24=0x00000000
2336000000: global: f25=0x00000000
2336000000: global: f26=0x00000000
2336000000: global: f27=0x00000000
2336000000: global: f28=0x00000000
2336000000: global: f29=0x00000000
2336000000: global: f30=0x00000000
2336000000: global: f31=0x00000000
2336000000: system.cpu.memory: Log4GUI: memory: 2336000000: 0: 10128: addi x5, x5, 4
2336000000: system.cpu.execute: Log4GUI: execute: 2336000000: 0: 1012c: addi x6, x6, -1: 0
2336000000: system.cpu.decode: Log4GUI: decode: 2336000000: 0: 10130: bne x6, x0, -52
2336000000: system.cpu.fetch1: Log4GUI: fetch1: 2336000000: 0: 10134: <assembly>
2337000000: system.cpu.writeback: Log4GUI: writeback: 2337000000: 0: 10128: addi x5, x5, 4
2337000000: system.cpu.writeback: REGISTERS
2337000000: global: x0=0x00000000
2337000000: global: x1=0x000112d4
2337000000: global: x2=0x00011464
2337000000: global: x3=0x000115f4
2337000000: global: x4=0x00011784
2337000000: global: x5=0x00011914
2337000000: global: x6=0x00000001
2337000000: global: x7=0x00000000
2337000000: global: x8=0x00000000
2337000000: global: x9=0x00000000
2337000000: global: x10=0x00000000
2337000000: global: x11=0x00000000
2337000000: global: x12=0x00000000
2337000000: global: x13=0x00000000
2337000000: global: x14=0x00000000
2337000000: global: x15=0x00000000
2337000000: global: x16=0x00000000
2337000000: global: x17=0x00000000
2337000000: global: x18=0x00000000
2337000000: global: x19=0x00000000
2337000000: global: x20=0x00000000
2337000000: global: x21=0x00000000
2337000000: global: x22=0x00000000
2337000000: global: x23=0x00000000
2337000000: global: x24=0x00000000
2337000000: global: x25=0x00000000
2337000000: global: x26=0x00000000
2337000000: global: x27=0x00000000
2337000000: global: x28=0x00000000
2337000000: global: x29=0x00000000
2337000000: global: x30=0x00000000
2337000000: global: x31=0x00000000
2337000000: global: f0=0x00000000
2337000000: global: f1=0x419f3333
2337000000: global: f2=0x419f3333
2337000000: global: f3=0x419f3333
2337000000: global: f4=0x00000000
2337000000: global: f5=0x43c60147
2337000000: global: f6=0x419f3333
2337000000: global: f7=0x00000000
2337000000: global: f8=0x00000000
2337000000: global: f9=0x00000000
2337000000: global: f10=0x00000000
2337000000: global: f11=0x00000000
2337000000: global: f12=0x00000000
2337000000: global: f13=0x00000000
2337000000: global: f14=0x00000000
2337000000: global: f15=0x00000000
2337000000: global: f16=0x00000000
2337000000: global: f17=0x00000000
2337000000: global: f18=0x00000000
2337000000: global: f19=0x00000000
2337000000: global: f20=0x00000000
2337000000: global: f21=0x00000000
2337000000: global: f22=0x00000000
2337000000: global: f23=0x00000000
2337000000: global: f24=0x00000000
2337000000: global: f25=0x00000000
2337000000: global: f26=0x00000000
2337000000: global: f27=0x00000000
2337000000: global: f28=0x00000000
2337000000: global: f29=0x00000000
2337000000: global: f30=0x00000000
2337000000: global: f31=0x00000000
2337000000: system.cpu.memory: Log4GUI: memory: 2337000000: 0: 1012c: addi x6, x6, -1
2337000000: system.cpu.decode: Log4GUI: decode: 2337000000: 1: 10130: bne x6, x0, -52
2337000000: system.cpu.fetch1: Log4GUI: fetch1: 2337000000: 1: 10134: <assembly>
2338000000: system.cpu.writeback: Log4GUI: writeback: 2338000000: 0: 1012c: addi x6, x6, -1
2338000000: system.cpu.writeback: REGISTERS
2338000000: global: x0=0x00000000
2338000000: global: x1=0x000112d4
2338000000: global: x2=0x00011464
2338000000: global: x3=0x000115f4
2338000000: global: x4=0x00011784
2338000000: global: x5=0x00011914
2338000000: global: x6=0x00000000
2338000000: global: x7=0x00000000
2338000000: global: x8=0x00000000
2338000000: global: x9=0x00000000
2338000000: global: x10=0x00000000
2338000000: global: x11=0x00000000
2338000000: global: x12=0x00000000
2338000000: global: x13=0x00000000
2338000000: global: x14=0x00000000
2338000000: global: x15=0x00000000
2338000000: global: x16=0x00000000
2338000000: global: x17=0x00000000
2338000000: global: x18=0x00000000
2338000000: global: x19=0x00000000
2338000000: global: x20=0x00000000
2338000000: global: x21=0x00000000
2338000000: global: x22=0x00000000
2338000000: global: x23=0x00000000
2338000000: global: x24=0x00000000
2338000000: global: x25=0x00000000
2338000000: global: x26=0x00000000
2338000000: global: x27=0x00000000
2338000000: global: x28=0x00000000
2338000000: global: x29=0x00000000
2338000000: global: x30=0x00000000
2338000000: global: x31=0x00000000
2338000000: global: f0=0x00000000
2338000000: global: f1=0x419f3333
2338000000: global: f2=0x419f3333
2338000000: global: f3=0x419f3333
2338000000: global: f4=0x00000000
2338000000: global: f5=0x43c60147
2338000000: global: f6=0x419f3333
2338000000: global: f7=0x00000000
2338000000: global: f8=0x00000000
2338000000: global: f9=0x00000000
2338000000: global: f10=0x00000000
2338000000: global: f11=0x00000000
2338000000: global: f12=0x00000000
2338000000: global: f13=0x00000000
2338000000: global: f14=0x00000000
2338000000: global: f15=0x00000000
2338000000: global: f16=0x00000000
2338000000: global: f17=0x00000000
2338000000: global: f18=0x00000000
2338000000: global: f19=0x00000000
2338000000: global: f20=0x00000000
2338000000: global: f21=0x00000000
2338000000: global: f22=0x00000000
2338000000: global: f23=0x00000000
2338000000: global: f24=0x00000000
2338000000: global: f25=0x00000000
2338000000: global: f26=0x00000000
2338000000: global: f27=0x00000000
2338000000: global: f28=0x00000000
2338000000: global: f29=0x00000000
2338000000: global: f30=0x00000000
2338000000: global: f31=0x00000000
2338000000: system.cpu.execute: Log4GUI: execute: 2338000000: 0: 10130: bne x6, x0, -52: 0
2338000000: system.cpu.decode: Log4GUI: decode: 2338000000: 0: 10134: addi x0, x0, 0
2338000000: system.cpu.fetch1: Log4GUI: fetch1: 2338000000: 0: 10138: <assembly>
2339000000: system.cpu.memory: Log4GUI: memory: 2339000000: 0: 10130: bne x6, x0, -52
2339000000: system.cpu.execute: Log4GUI: execute: 2339000000: 0: 10134: addi x0, x0, 0: 0
2339000000: system.cpu.decode: Log4GUI: decode: 2339000000: 0: 10138: addi x10, x0, 0
2339000000: system.cpu.fetch1: Log4GUI: fetch1: 2339000000: 0: 1013c: <assembly>
2340000000: system.cpu.writeback: Log4GUI: writeback: 2340000000: 0: 10130: bne x6, x0, -52
2340000000: system.cpu.writeback: REGISTERS
2340000000: global: x0=0x00000000
2340000000: global: x1=0x000112d4
2340000000: global: x2=0x00011464
2340000000: global: x3=0x000115f4
2340000000: global: x4=0x00011784
2340000000: global: x5=0x00011914
2340000000: global: x6=0x00000000
2340000000: global: x7=0x00000000
2340000000: global: x8=0x00000000
2340000000: global: x9=0x00000000
2340000000: global: x10=0x00000000
2340000000: global: x11=0x00000000
2340000000: global: x12=0x00000000
2340000000: global: x13=0x00000000
2340000000: global: x14=0x00000000
2340000000: global: x15=0x00000000
2340000000: global: x16=0x00000000
2340000000: global: x17=0x00000000
2340000000: global: x18=0x00000000
2340000000: global: x19=0x00000000
2340000000: global: x20=0x00000000
2340000000: global: x21=0x00000000
2340000000: global: x22=0x00000000
2340000000: global: x23=0x00000000
2340000000: global: x24=0x00000000
2340000000: global: x25=0x00000000
2340000000: global: x26=0x00000000
2340000000: global: x27=0x00000000
2340000000: global: x28=0x00000000
2340000000: global: x29=0x00000000
2340000000: global: x30=0x00000000
2340000000: global: x31=0x00000000
2340000000: global: f0=0x00000000
2340000000: global: f1=0x419f3333
2340000000: global: f2=0x419f3333
2340000000: global: f3=0x419f3333
2340000000: global: f4=0x00000000
2340000000: global: f5=0x43c60147
2340000000: global: f6=0x419f3333
2340000000: global: f7=0x00000000
2340000000: global: f8=0x00000000
2340000000: global: f9=0x00000000
2340000000: global: f10=0x00000000
2340000000: global: f11=0x00000000
2340000000: global: f12=0x00000000
2340000000: global: f13=0x00000000
2340000000: global: f14=0x00000000
2340000000: global: f15=0x00000000
2340000000: global: f16=0x00000000
2340000000: global: f17=0x00000000
2340000000: global: f18=0x00000000
2340000000: global: f19=0x00000000
2340000000: global: f20=0x00000000
2340000000: global: f21=0x00000000
2340000000: global: f22=0x00000000
2340000000: global: f23=0x00000000
2340000000: global: f24=0x00000000
2340000000: global: f25=0x00000000
2340000000: global: f26=0x00000000
2340000000: global: f27=0x00000000
2340000000: global: f28=0x00000000
2340000000: global: f29=0x00000000
2340000000: global: f30=0x00000000
2340000000: global: f31=0x00000000
2340000000: system.cpu.memory: Log4GUI: memory: 2340000000: 0: 10134: addi x0, x0, 0
2340000000: system.cpu.execute: Log4GUI: execute: 2340000000: 0: 10138: addi x10, x0, 0: 0
2340000000: system.cpu.decode: Log4GUI: decode: 2340000000: 0: 1013c: addi x17, x0, 93
2340000000: system.cpu.fetch1: Log4GUI: fetch1: 2340000000: 0: 10140: <assembly>
2341000000: system.cpu.writeback: Log4GUI: writeback: 2341000000: 0: 10134: addi x0, x0, 0
2341000000: system.cpu.writeback: REGISTERS
2341000000: global: x0=0x00000000
2341000000: global: x1=0x000112d4
2341000000: global: x2=0x00011464
2341000000: global: x3=0x000115f4
2341000000: global: x4=0x00011784
2341000000: global: x5=0x00011914
2341000000: global: x6=0x00000000
2341000000: global: x7=0x00000000
2341000000: global: x8=0x00000000
2341000000: global: x9=0x00000000
2341000000: global: x10=0x00000000
2341000000: global: x11=0x00000000
2341000000: global: x12=0x00000000
2341000000: global: x13=0x00000000
2341000000: global: x14=0x00000000
2341000000: global: x15=0x00000000
2341000000: global: x16=0x00000000
2341000000: global: x17=0x00000000
2341000000: global: x18=0x00000000
2341000000: global: x19=0x00000000
2341000000: global: x20=0x00000000
2341000000: global: x21=0x00000000
2341000000: global: x22=0x00000000
2341000000: global: x23=0x00000000
2341000000: global: x24=0x00000000
2341000000: global: x25=0x00000000
2341000000: global: x26=0x00000000
2341000000: global: x27=0x00000000
2341000000: global: x28=0x00000000
2341000000: global: x29=0x00000000
2341000000: global: x30=0x00000000
2341000000: global: x31=0x00000000
2341000000: global: f0=0x00000000
2341000000: global: f1=0x419f3333
2341000000: global: f2=0x419f3333
2341000000: global: f3=0x419f3333
2341000000: global: f4=0x00000000
2341000000: global: f5=0x43c60147
2341000000: global: f6=0x419f3333
2341000000: global: f7=0x00000000
2341000000: global: f8=0x00000000
2341000000: global: f9=0x00000000
2341000000: global: f10=0x00000000
2341000000: global: f11=0x00000000
2341000000: global: f12=0x00000000
2341000000: global: f13=0x00000000
2341000000: global: f14=0x00000000
2341000000: global: f15=0x00000000
2341000000: global: f16=0x00000000
2341000000: global: f17=0x00000000
2341000000: global: f18=0x00000000
2341000000: global: f19=0x00000000
2341000000: global: f20=0x00000000
2341000000: global: f21=0x00000000
2341000000: global: f22=0x00000000
2341000000: global: f23=0x00000000
2341000000: global: f24=0x00000000
2341000000: global: f25=0x00000000
2341000000: global: f26=0x00000000
2341000000: global: f27=0x00000000
2341000000: global: f28=0x00000000
2341000000: global: f29=0x00000000
2341000000: global: f30=0x00000000
2341000000: global: f31=0x00000000
2341000000: system.cpu.memory: Log4GUI: memory: 2341000000: 0: 10138: addi x10, x0, 0
2341000000: system.cpu.execute: Log4GUI: execute: 2341000000: 0: 1013c: addi x17, x0, 93: 0
2341000000: system.cpu.decode: Log4GUI: decode: 2341000000: 0: 10140: ecall
2341000000: system.cpu.fetch1: Log4GUI: fetch1: 2341000000: 0: 10144: <assembly>
2342000000: system.cpu.writeback: Log4GUI: writeback: 2342000000: 0: 10138: addi x10, x0, 0
2342000000: system.cpu.writeback: REGISTERS
2342000000: global: x0=0x00000000
2342000000: global: x1=0x000112d4
2342000000: global: x2=0x00011464
2342000000: global: x3=0x000115f4
2342000000: global: x4=0x00011784
2342000000: global: x5=0x00011914
2342000000: global: x6=0x00000000
2342000000: global: x7=0x00000000
2342000000: global: x8=0x00000000
2342000000: global: x9=0x00000000
2342000000: global: x10=0x00000000
2342000000: global: x11=0x00000000
2342000000: global: x12=0x00000000
2342000000: global: x13=0x00000000
2342000000: global: x14=0x00000000
2342000000: global: x15=0x00000000
2342000000: global: x16=0x00000000
2342000000: global: x17=0x00000000
2342000000: global: x18=0x00000000
2342000000: global: x19=0x00000000
2342000000: global: x20=0x00000000
2342000000: global: x21=0x00000000
2342000000: global: x22=0x00000000
2342000000: global: x23=0x00000000
2342000000: global: x24=0x00000000
2342000000: global: x25=0x00000000
2342000000: global: x26=0x00000000
2342000000: global: x27=0x00000000
2342000000: global: x28=0x00000000
2342000000: global: x29=0x00000000
2342000000: global: x30=0x00000000
2342000000: global: x31=0x00000000
2342000000: global: f0=0x00000000
2342000000: global: f1=0x419f3333
2342000000: global: f2=0x419f3333
2342000000: global: f3=0x419f3333
2342000000: global: f4=0x00000000
2342000000: global: f5=0x43c60147
2342000000: global: f6=0x419f3333
2342000000: global: f7=0x00000000
2342000000: global: f8=0x00000000
2342000000: global: f9=0x00000000
2342000000: global: f10=0x00000000
2342000000: global: f11=0x00000000
2342000000: global: f12=0x00000000
2342000000: global: f13=0x00000000
2342000000: global: f14=0x00000000
2342000000: global: f15=0x00000000
2342000000: global: f16=0x00000000
2342000000: global: f17=0x00000000
2342000000: global: f18=0x00000000
2342000000: global: f19=0x00000000
2342000000: global: f20=0x00000000
2342000000: global: f21=0x00000000
2342000000: global: f22=0x00000000
2342000000: global: f23=0x00000000
2342000000: global: f24=0x00000000
2342000000: global: f25=0x00000000
2342000000: global: f26=0x00000000
2342000000: global: f27=0x00000000
2342000000: global: f28=0x00000000
2342000000: global: f29=0x00000000
2342000000: global: f30=0x00000000
2342000000: global: f31=0x00000000
2342000000: system.cpu.memory: Log4GUI: memory: 2342000000: 0: 1013c: addi x17, x0, 93
2342000000: system.cpu.execute: Log4GUI: execute: 2342000000: 0: 10140: ecall: -1
2342000000: system.cpu.decode: Log4GUI: decode: 2342000000: 0: 10144: c_addi4spn x8, x2, 0
2342000000: system.cpu.fetch1: Log4GUI: fetch1: 2342000000: 0: 10146: <assembly>
Exiting @ tick 2342000000 because exiting with last active thread context
